geometry optimzed in LAMMPS
_audit_creation_date              2020-12-01 
_audit_creation_method            'lammps2cif' 
_symmetry_space_group_name_H-M    'P1' 
_symmetry_Int_Tables_number       1 
_symmetry_cell_setting            triclinic 
loop_ 
_symmetry_equiv_pos_as_xyz 
  x,y,z 
_cell_length_a                    58.1248261 
_cell_length_b                    47.55548573779306 
_cell_length_c                    27.70234926867346 
_cell_angle_alpha                 89.97320436916061 
_cell_angle_beta                  90.08684070066477 
_cell_angle_gamma                 89.94151174708009 
loop_ 
_atom_site_label 
_atom_site_type_symbol 
_atom_site_fract_x 
_atom_site_fract_y 
_atom_site_fract_z 
_atom_site_charge 
O1          O  0.34259504  0.86673959  0.68220535    -0.84700
O2          O  0.37799524  0.82959262  0.69733649    -0.81800
C3          C  0.36774024  0.80606787  0.69489943     0.98700
O4          O  0.35950237  0.79812619  0.65522498    -0.81800
O5          O  0.34237487  0.79875764  0.56235474    -0.84400
C6          C  0.32265608  0.81006770  0.56415686     1.03300
O7          O  0.32047758  0.83490429  0.57846664    -0.77200
O8          O  0.32835508  0.88599887  0.61703743    -0.77400
C9          C  0.32598417  0.87826465  0.66061161     1.03200
O10         O  0.37235076  0.90314519  0.62499532    -0.84700
O11         O  0.40597636  0.86178171  0.63220422    -0.81800
C12         C  0.41585641  0.83833348  0.62660784     0.98800
O13         O  0.40401344  0.81618484  0.62069585    -0.81800
O14         O  0.38538526  0.82063638  0.52980913    -0.84400
C15         C  0.37238667  0.82799089  0.49568900     1.03200
O16         O  0.35450281  0.84245903  0.50474519    -0.77200
O17         O  0.36626021  0.89268381  0.54916890    -0.77400
C18         C  0.37274471  0.91004741  0.58061078     1.03200
Cr19       Cr  0.37398709  0.86422528  0.65548240     1.93700
Cr20       Cr  0.37221281  0.81107424  0.59314270     1.93200
Cr21       Cr  0.34401669  0.86297738  0.56502684     1.39100
O22         O  0.36363625  0.84614811  0.60415380    -1.22500
O23         O  0.62524191  0.88771310  0.60277217    -0.84700
O24         O  0.60111042  0.84372321  0.64383458    -0.81800
C25         C  0.58885625  0.83319686  0.61058360     0.98700
O26         O  0.59794198  0.81952394  0.57650258    -0.81800
O27         O  0.63135351  0.80120303  0.51290820    -0.84400
C28         C  0.63417225  0.82059974  0.48246266     1.03300
O29         O  0.64208500  0.84416621  0.49551390    -0.77200
O30         O  0.65642261  0.88667434  0.55833596    -0.77400
C31         C  0.63888458  0.89954234  0.57368892     1.03200
O32         O  0.66600161  0.87061450  0.65575366    -0.84700
O33         O  0.64279902  0.82454122  0.69035857    -0.81800
C34         C  0.63236050  0.80129673  0.69104608     0.98800
O35         O  0.62183751  0.79321395  0.65372280    -0.81800
O36         O  0.65809021  0.78091115  0.59164641    -0.84400
C37         C  0.67426835  0.78540840  0.56223180     1.03200
O38         O  0.67505146  0.80764378  0.53754682    -0.77200
O39         O  0.68685175  0.84718313  0.60355090    -0.77400
C40         C  0.68525819  0.86109843  0.64206231     1.03200
Cr41       Cr  0.63435698  0.85509755  0.64409739     1.93700
Cr42       Cr  0.62835205  0.80135879  0.58441103     1.93200
Cr43       Cr  0.66328462  0.84576364  0.55215545     1.39100
O44         O  0.64188914  0.83429897  0.59334379    -1.22500
O45         O  0.66043522  0.64390309  0.17969168    -0.84700
O46         O  0.62405194  0.68018264  0.18717563    -0.81800
C47         C  0.63287401  0.70451052  0.18310051     0.98700
O48         O  0.64142999  0.71224999  0.14368717    -0.81800
O49         O  0.66212268  0.70988866  0.05498008    -0.84400
C50         C  0.68214345  0.69997908  0.06173831     1.03300
O51         O  0.68470823  0.67600575  0.07985655    -0.77200
O52         O  0.67727006  0.62422683  0.11812502    -0.77400
C53         C  0.67755816  0.63128736  0.16225993     1.03200
O54         O  0.63342015  0.60564187  0.11940187    -0.84700
O55         O  0.59861684  0.64525619  0.12043200    -0.81800
C56         C  0.58794201  0.66775984  0.11144819     0.98800
O57         O  0.59897619  0.69044491  0.10452225    -0.81800
O58         O  0.62120185  0.68390806  0.01756182    -0.84400
C59         C  0.63633157  0.67785104  0.98688075     1.03200
O60         O  0.65454943  0.66533922  0.00025779    -0.77200
O61         O  0.64263831  0.61532689  0.04457636    -0.77400
C62         C  0.63508949  0.59822015  0.07535248     1.03200
Cr63       Cr  0.62993227  0.64488284  0.14807430     1.93700
Cr64       Cr  0.63157199  0.69655463  0.08161785     1.93200
Cr65       Cr  0.66306501  0.64623930  0.06309119     1.39100
O66         O  0.64129997  0.66249882  0.09740604    -1.22500
O67         O  0.36800532  0.60967387  0.12064889    -0.84700
O68         O  0.40330150  0.64830185  0.12533810    -0.81800
C69         C  0.41390630  0.67096142  0.11715501     0.98700
O70         O  0.40297101  0.69390820  0.11284219    -0.81800
O71         O  0.37828117  0.69211976  0.02767439    -0.84400
C72         C  0.36237147  0.68711238  0.99796966     1.03300
O73         O  0.34430864  0.67475751  0.01206700    -0.77200
O74         O  0.35758563  0.62307335  0.04810929    -0.77400
C75         C  0.36570762  0.60452564  0.07577676     1.03200
O76         O  0.34219972  0.64505453  0.18853604    -0.84700
O77         O  0.37958649  0.68027678  0.19820915    -0.81800
C78         C  0.37187628  0.70524348  0.19814855     0.98800
O79         O  0.36261250  0.71499318  0.16055913    -0.81800
O80         O  0.33909224  0.71662847  0.07428252    -0.84400
C81         C  0.31908383  0.70682475  0.08117849     1.03200
O82         O  0.31650198  0.68205526  0.09585160    -0.77200
O83         O  0.32471422  0.62836637  0.12537958    -0.77400
C84         C  0.32454216  0.63411015  0.16997428     1.03200
Cr85       Cr  0.37233215  0.64716422  0.15478188     1.93700
Cr86       Cr  0.37006544  0.70174501  0.09503650     1.93200
Cr87       Cr  0.33758266  0.65297368  0.07286277     1.39100
O88         O  0.36024689  0.66730173  0.10740025    -1.22500
O89         O  0.16246958  0.87245124  0.83581181    -0.84700
O90         O  0.12591733  0.83600136  0.82521179    -0.81800
C91         C  0.13537061  0.81191998  0.82662671     0.98700
O92         O  0.14426876  0.80341637  0.86542425    -0.81800
O93         O  0.16294341  0.80338155  0.95642220    -0.84400
C94         C  0.18319088  0.81283790  0.95311714     1.03300
O95         O  0.18667185  0.83756389  0.93895940    -0.77200
O96         O  0.17900594  0.88949855  0.90051953    -0.77400
C97         C  0.17961485  0.88395837  0.85563661     1.03200
O98         O  0.13534640  0.90877586  0.89712939    -0.84700
O99         O  0.10055066  0.86932945  0.89466561    -0.81800
C100        C  0.09010386  0.84648654  0.90187909     0.98800
O101        O  0.10128405  0.82363586  0.90342362    -0.81800
O102        O  0.12161476  0.82807623  0.99220929    -0.84400
C103        C  0.13576556  0.83349816  0.02533770     1.03200
O104        O  0.15416980  0.84664652  0.01534016    -0.77200
O105        O  0.14294401  0.89736518  0.97205491    -0.77400
C106        C  0.13594189  0.91505378  0.94163309     1.03200
Cr107      Cr  0.13184773  0.87035607  0.86665349     1.93700
Cr108      Cr  0.13325428  0.81714167  0.92824351     1.93200
Cr109      Cr  0.16404807  0.86691090  0.95398930     1.39100
O110        O  0.14312324  0.85144341  0.91625974    -1.22500
O111        O  0.87041484  0.89434904  0.89729583    -0.84700
O112        O  0.90681889  0.85705252  0.89856674    -0.81800
C113        C  0.91791277  0.83483254  0.90730108     0.98700
O114        O  0.90766948  0.81137108  0.91101854    -0.81800
O115        O  0.88311885  0.81417776  0.99546839    -0.84400
C116        C  0.86700174  0.81781996  0.02500213     1.03300
O117        O  0.84902526  0.83067605  0.01133274    -0.77200
O118        O  0.86154359  0.88240382  0.97143617    -0.77400
C119        C  0.86851277  0.90054575  0.94174860     1.03200
O120        O  0.84672854  0.85575156  0.83270847    -0.84700
O121        O  0.88492320  0.82224984  0.82647491    -0.81800
C122        C  0.87699549  0.79739375  0.82789956     0.98800
O123        O  0.86733789  0.78843870  0.86533671    -0.81800
O124        O  0.84411892  0.78757870  0.95075629    -0.84400
C125        C  0.82394664  0.79666917  0.94254311     1.03200
O126        O  0.82081475  0.82158934  0.92909161    -0.77200
O127        O  0.82833633  0.87375542  0.89396214    -0.77400
C128        C  0.82867485  0.86638918  0.84994503     1.03200
Cr129      Cr  0.87638514  0.85612257  0.86713407     1.93700
Cr130      Cr  0.87488657  0.80287971  0.92948598     1.93200
Cr131      Cr  0.84176179  0.85137609  0.94926336     1.39100
O132        O  0.86445478  0.83672332  0.91537571    -1.22500
O133        O  0.83901363  0.62292947  0.36268997    -0.84700
O134        O  0.85957129  0.66924184  0.32426704    -0.81800
C135        C  0.86552688  0.69467908  0.32275883     0.98700
O136        O  0.87375884  0.70612022  0.35975003    -0.81800
O137        O  0.83554448  0.71176388  0.41874912    -0.84400
C138        C  0.82013967  0.70452042  0.44834932     1.03300
O139        O  0.82435819  0.68577056  0.47909982    -0.77200
O140        O  0.81644420  0.64379374  0.41528989    -0.77400
C141        C  0.81919791  0.63128248  0.37557595     1.03200
O142        O  0.88070456  0.61126749  0.41879850    -0.84700
O143        O  0.90184316  0.65727353  0.37836220    -0.81800
C144        C  0.91193837  0.67275275  0.40930399     0.98800
O145        O  0.90063529  0.68812406  0.43803751    -0.81800
O146        O  0.86542051  0.70029059  0.50016233    -0.84400
C147        C  0.86699973  0.68101480  0.53134707     1.03200
O148        O  0.86148442  0.65601121  0.52086366    -0.77200
O149        O  0.84991345  0.60969081  0.46374616    -0.77400
C150        C  0.86864373  0.59901244  0.45023543     1.03200
Cr151      Cr  0.86956562  0.64180961  0.37495759     1.93700
Cr152      Cr  0.86804128  0.69873650  0.42875493     1.93200
Cr153      Cr  0.83972480  0.64952589  0.46629712     1.39100
O154        O  0.85951938  0.66302670  0.42343303    -1.22500
O155        O  0.13155203  0.61716898  0.40005767    -0.84700
O156        O  0.09668439  0.65635806  0.39498760    -0.81800
C157        C  0.08602486  0.67881549  0.40401916     0.98700
O158        O  0.09682617  0.70164868  0.41098784    -0.81800
O159        O  0.12043733  0.69762849  0.49675032    -0.84400
C160        C  0.13581296  0.69199213  0.52731604     1.03300
O161        O  0.15410316  0.68004930  0.51345673    -0.77200
O162        O  0.14102751  0.62929343  0.47394482    -0.77400
C163        C  0.13385719  0.61110325  0.44463471     1.03200
O164        O  0.15848831  0.65346203  0.33580989    -0.84700
O165        O  0.12147946  0.68964323  0.32593767    -0.81800
C166        C  0.12991144  0.71424179  0.32819346     0.98800
O167        O  0.13845998  0.72319927  0.36690945    -0.81800
O168        O  0.16068290  0.72265375  0.45369854    -0.84400
C169        C  0.18070142  0.71302227  0.44566299     1.03200
O170        O  0.18337757  0.68804547  0.43221488    -0.77200
O171        O  0.17496058  0.63532016  0.39914882    -0.77400
C172        C  0.17564992  0.64154110  0.35474212     1.03200
Cr173      Cr  0.12793670  0.65544081  0.36772608     1.93700
Cr174      Cr  0.12973556  0.70869380  0.43084999     1.93200
Cr175      Cr  0.16156953  0.65918952  0.45213743     1.39100
O176        O  0.13951073  0.67445403  0.41695499    -1.22500
O177        O  0.66950436  0.37534022  0.86052680    -0.84700
O178        O  0.64558767  0.33088141  0.82067018    -0.81800
C179        C  0.63621443  0.30696658  0.81875721     0.98700
O180        O  0.62499547  0.29813856  0.85457531    -0.81800
O181        O  0.66115592  0.28220796  0.91349821    -0.84400
C182        C  0.67744105  0.28487244  0.94326118     1.03300
O183        O  0.67912044  0.30651934  0.96934715    -0.77200
O184        O  0.69047017  0.34822603  0.90712918    -0.77400
C185        C  0.68865731  0.36414871  0.87100196     1.03200
O186        O  0.62952578  0.39011979  0.91724109    -0.84700
O187        O  0.60411450  0.34827974  0.87221607    -0.81800
C188        C  0.59241274  0.33673362  0.90546955     0.98800
O189        O  0.60227429  0.32143899  0.93638149    -0.81800
O190        O  0.63556114  0.29998651  0.99533606    -0.84400
C191        C  0.63896458  0.31798425  0.02799309     1.03200
O192        O  0.64739089  0.34177766  0.01766037    -0.77200
O193        O  0.66131676  0.38668054  0.95923757    -0.77400
C194        C  0.64360140  0.40045898  0.94723483     1.03200
Cr195      Cr  0.63772926  0.35938667  0.87130914     1.93700
Cr196      Cr  0.63203979  0.30313959  0.92431785     1.93200
Cr197      Cr  0.66780001  0.34540626  0.95998483     1.39100
O198        O  0.64576117  0.33618416  0.91879467    -1.22500
O199        O  0.37280703  0.40203778  0.89974814    -0.84700
O200        O  0.40765712  0.36256339  0.89495384    -0.81800
C201        C  0.41795273  0.33953559  0.90211765     0.98700
O202        O  0.40661304  0.31678049  0.90512529    -0.81800
O203        O  0.38217333  0.31822691  0.98985246    -0.84400
C204        C  0.36645906  0.32268554  0.02003567     1.03300
O205        O  0.34858640  0.33586660  0.00672357    -0.77200
O206        O  0.36333526  0.38768915  0.97218207    -0.77400
C207        C  0.37042565  0.40691142  0.94476456     1.03200
O208        O  0.34675948  0.36752602  0.83093455    -0.84700
O209        O  0.38427229  0.33141950  0.82112265    -0.81800
C210        C  0.37616556  0.30661900  0.82144564     0.98800
O211        O  0.36523004  0.29797320  0.85744209    -0.81800
O212        O  0.34190140  0.29556636  0.94221311    -0.84400
C213        C  0.32227768  0.30608023  0.93304995     1.03200
O214        O  0.32058604  0.33158696  0.92199273    -0.77200
O215        O  0.33036091  0.38476419  0.89493097    -0.77400
C216        C  0.32959458  0.37924954  0.85030093     1.03200
Cr217      Cr  0.37692582  0.36460925  0.86480683     1.93700
Cr218      Cr  0.37343993  0.30967213  0.92274724     1.93200
Cr219      Cr  0.34242757  0.35906970  0.94673235     1.39100
O220        O  0.36454292  0.34445000  0.91163175    -1.22500
O221        O  0.34008685  0.13334929  0.36271042    -0.84700
O222        O  0.36413425  0.17705529  0.32226113    -0.81800
C223        C  0.37338130  0.20102123  0.31997888     0.98700
O224        O  0.38398603  0.21055338  0.35615808    -0.81800
O225        O  0.34886512  0.22545875  0.41878681    -0.84400
C226        C  0.33343876  0.22262607  0.45037857     1.03300
O227        O  0.33238697  0.20059623  0.47563580    -0.77200
O228        O  0.31976786  0.16018217  0.41094295    -0.77400
C229        C  0.32112848  0.14478044  0.37401450     1.03200
O230        O  0.38060224  0.11719075  0.41758103    -0.84700
O231        O  0.40575643  0.15899183  0.37202147    -0.81800
C232        C  0.41783183  0.17123310  0.40390377     0.98800
O233        O  0.40841691  0.18667119  0.43505527    -0.81800
O234        O  0.37632918  0.20611005  0.49755532    -0.84400
C235        C  0.37397998  0.18710191  0.52896117     1.03200
O236        O  0.36497622  0.16374381  0.51806195    -0.77200
O237        O  0.34889305  0.12042495  0.45932077    -0.77400
C238        C  0.36646632  0.10657956  0.44706249     1.03200
Cr239      Cr  0.37213406  0.14839631  0.37241690     1.93700
Cr240      Cr  0.37829647  0.20451278  0.42616381     1.93200
Cr241      Cr  0.34321383  0.16174422  0.46255041     1.39100
O242        O  0.36466224  0.17141552  0.42042075    -1.22500
O243        O  0.63621364  0.10231329  0.39973903    -0.84700
O244        O  0.60180917  0.14205557  0.39306240    -0.81800
C245        C  0.59144195  0.16504125  0.39961152     0.98700
O246        O  0.60264636  0.18771150  0.40538991    -0.81800
O247        O  0.62464852  0.18484475  0.49334528    -0.84400
C248        C  0.63968350  0.18020012  0.52508841     1.03300
O249        O  0.65742631  0.16614461  0.51378639    -0.77200
O250        O  0.64407417  0.11461519  0.47410404    -0.77400
C251        C  0.63700168  0.09638994  0.44455639     1.03200
O252        O  0.66405430  0.13814130  0.33673274    -0.84700
O253        O  0.62747273  0.17435375  0.32384842    -0.81800
C254        C  0.63592027  0.19895189  0.32585685     0.98800
O255        O  0.64518512  0.20747279  0.36409042    -0.81800
O256        O  0.66593817  0.20800300  0.45273851    -0.84400
C257        C  0.68586668  0.19746415  0.44791058     1.03200
O258        O  0.68821479  0.17238365  0.43464824    -0.77200
O259        O  0.67950022  0.11997641  0.40124705    -0.77400
C260        C  0.68098553  0.12645675  0.35698142     1.03200
Cr261      Cr  0.63326088  0.14046151  0.36685684     1.93700
Cr262      Cr  0.63520344  0.19439778  0.42780264     1.93200
Cr263      Cr  0.66556391  0.14416803  0.45343931     1.39100
O264        O  0.64445940  0.15969520  0.41621410    -1.22500
O265        O  0.84780093  0.35597516  0.67956307    -0.84700
O266        O  0.88500306  0.32077428  0.68718703    -0.81800
C267        C  0.87651662  0.29620643  0.68486361     0.93900
O268        O  0.86867455  0.28732801  0.64535697    -0.81800
O269        O  0.84630715  0.28788192  0.55887198    -0.84400
C270        C  0.82615340  0.29624136  0.56879857     1.03300
O271        O  0.82269481  0.32092529  0.58330428    -0.77200
O272        O  0.82981991  0.37404140  0.61798297    -0.77400
C273        C  0.83034422  0.36812739  0.66254358     1.03200
O274        O  0.87337610  0.39387383  0.61549090    -0.84700
O275        O  0.90918470  0.35542705  0.61836433    -0.81800
C276        C  0.92014900  0.33324820  0.60857184     0.98800
O277        O  0.90962999  0.31028677  0.60136003    -0.81800
O278        O  0.88538869  0.31490025  0.51598144    -0.84400
C279        C  0.86968606  0.32062389  0.48614959     1.03200
O280        O  0.85111268  0.33162276  0.50095353    -0.77200
O281        O  0.86304316  0.38227909  0.54210950    -0.77400
C282        C  0.87040443  0.40043651  0.57124434     1.03200
Cr283      Cr  0.87797589  0.35525338  0.64648294     1.93700
Cr284      Cr  0.87683804  0.30271681  0.58174217     1.93200
Cr285      Cr  0.84348857  0.35123092  0.56357813     1.39100
O286        O  0.86635738  0.33645253  0.59711367    -1.22500
O287        O  0.13582253  0.40702609  0.61334059    -0.84700
O288        O  0.10342336  0.36471047  0.61341441    -0.81800
C289        C  0.09437781  0.34089295  0.60669828     0.98700
O290        O  0.10698153  0.31898893  0.60649837    -0.81800
O291        O  0.13123447  0.32247666  0.52183376    -0.84400
C292        C  0.14576748  0.33004656  0.49087423     1.03300
O293        O  0.16290132  0.34486605  0.50353236    -0.77200
O294        O  0.14658763  0.39507463  0.54065407    -0.77400
C295        C  0.13750720  0.41269023  0.56863180     1.03200
O296        O  0.16285694  0.37342120  0.68096102    -0.84700
O297        O  0.12756612  0.33512597  0.68818768    -0.81800
C298        C  0.13853034  0.31212303  0.69029644     0.98800
O299        O  0.14984597  0.30379200  0.65440426    -0.81800
O300        O  0.17279002  0.30343474  0.56709691    -0.84400
C301        C  0.19200144  0.31560717  0.57343443     1.03200
O302        O  0.19242538  0.34085642  0.58643579    -0.77200
O303        O  0.17985418  0.39212728  0.61854811    -0.77400
C304        C  0.18014014  0.38547411  0.66287526     1.03200
Cr305      Cr  0.13343807  0.36893748  0.64577651     1.93700
Cr306      Cr  0.14068595  0.31471156  0.58854684     1.93200
Cr307      Cr  0.16876745  0.36716432  0.56459757     1.39100
O308        O  0.14747380  0.35026562  0.59926261    -1.22500
O309        O  0.16350503  0.15523555  0.17939492    -0.84700
O310        O  0.12627664  0.18926083  0.19168096    -0.81800
C311        C  0.13508509  0.21366038  0.18911916     0.98700
O312        O  0.14255442  0.22268361  0.14953809    -0.81800
O313        O  0.16092904  0.22379144  0.05915471    -0.84400
C314        C  0.18144618  0.21552119  0.06483384     1.03300
O315        O  0.18567622  0.19111284  0.07967743    -0.77200
O316        O  0.18053890  0.13824944  0.11556890    -0.77400
C317        C  0.18069199  0.14360820  0.16044536     1.03200
O318        O  0.13757205  0.11712746  0.11851781    -0.84700
O319        O  0.10118700  0.15445342  0.12338879    -0.81800
C320        C  0.08982844  0.17674845  0.11709416     0.98800
O321        O  0.10003942  0.20013682  0.11256256    -0.81800
O322        O  0.12070107  0.19675824  0.02310379    -0.84400
C323        C  0.13548433  0.19219461  0.99083481     1.03200
O324        O  0.15436606  0.18029880  0.00165982    -0.77200
O325        O  0.14504075  0.12882959  0.04349292    -0.77400
C326        C  0.13888587  0.11079397  0.07404151     1.03200
Cr327      Cr  0.13279252  0.15528120  0.14962784     1.93700
Cr328      Cr  0.13174976  0.20834905  0.08725948     1.93200
Cr329      Cr  0.16471123  0.16044253  0.06266566     1.39100
O330        O  0.14291438  0.17459745  0.09961127    -1.22500
O331        O  0.87260275  0.10506467  0.11658713    -0.84700
O332        O  0.90647007  0.14595512  0.11584675    -0.81800
C333        C  0.91622974  0.16907443  0.10684907     0.98700
O334        O  0.90442073  0.19145799  0.10275273    -0.81800
O335        O  0.88082275  0.18580905  0.01719433    -0.84400
C336        C  0.86581145  0.17864680  0.98681723     1.03300
O337        O  0.84806752  0.16554464  0.00099237    -0.77200
O338        O  0.86268554  0.11565771  0.04239596    -0.77400
C339        C  0.87060803  0.09826354  0.07235954     1.03200
O340        O  0.84608067  0.14141622  0.18050342    -0.84700
O341        O  0.88194984  0.17869227  0.18643301    -0.81800
C342        C  0.87215148  0.20255195  0.18536064     0.98800
O343        O  0.86243171  0.21086993  0.14724054    -0.81800
O344        O  0.83959860  0.20871894  0.05907335    -0.84400
C345        C  0.82011882  0.19751802  0.06687476     1.03200
O346        O  0.81915257  0.17323843  0.08422141    -0.77200
O347        O  0.82910647  0.12186666  0.11891681    -0.77400
C348        C  0.82890523  0.12881967  0.16308501     1.03200
Cr349      Cr  0.87590127  0.14394184  0.14638064     1.93700
Cr350      Cr  0.87124856  0.19670230  0.08292671     1.93200
Cr351      Cr  0.84143754  0.14516776  0.06382983     1.39100
O352        O  0.86309757  0.16192870  0.09749881    -1.22500
C353        C  0.97788103  0.19361293  0.08537095    -0.13700
C354        C  0.99047103  0.17195904  0.10749376     0.16700
C355        C  0.97860014  0.14922182  0.12895360     0.03000
C356        C  0.95449662  0.14835127  0.12633469    -0.12200
C357        C  0.94178549  0.17005426  0.10431758    -0.03300
C358        C  0.95378118  0.19282325  0.08323218     0.02200
C359        C  0.01599895  0.17339650  0.10711583     0.09000
N360        N  0.99059960  0.12739073  0.15476158     0.65400
H361        H  0.94557307  0.13107652  0.14356537     0.18300
N362        N  0.94190165  0.21482405  0.05814267     0.75900
H363        H  0.98691555  0.21095006  0.06852971     0.09800
C364        C  0.02969977  0.15183641  0.08668008     0.03500
C365        C  0.05372202  0.15300792  0.09203273    -0.05200
C366        C  0.06441166  0.17563833  0.11559102    -0.23600
C367        C  0.05070084  0.19740571  0.13508572     0.12800
C368        C  0.02671007  0.19612270  0.13026375    -0.12700
N369        N  0.01962051  0.12907269  0.05971580     0.64400
H370        H  0.06424176  0.13665258  0.07608284     0.12300
N371        N  0.06070956  0.22014781  0.16194381     0.61100
H372        H  0.01623390  0.21243695  0.14647613     0.08400
O373        O  0.93024249  0.20914957  0.02093698    -0.40400
O374        O  0.94566394  0.24018995  0.06893066    -0.39600
O375        O  0.00740608  0.13332765  0.18181443    -0.39600
O376        O  0.98292493  0.10256182  0.15466817    -0.37300
O377        O  0.05323271  0.24487897  0.15649896    -0.38200
O378        O  0.07487935  0.21510947  0.19544896    -0.34300
O379        O  0.00237523  0.13332615  0.03291129    -0.35700
O380        O  0.02929422  0.10529281  0.05879217    -0.40000
C381        C  0.14113050  0.27839174  0.26875030    -0.13700
C382        C  0.14415723  0.26621107  0.31426048     0.16700
C383        C  0.14363084  0.23662276  0.31907567     0.03000
C384        C  0.13972788  0.21988334  0.27802375    -0.12200
C385        C  0.13671910  0.23205306  0.23224365    -0.03300
C386        C  0.13719421  0.26176442  0.22783273     0.02200
C387        C  0.14458610  0.28490084  0.35692178     0.09000
N388        N  0.14723559  0.22331856  0.36508547     0.65400
H389        H  0.13982325  0.19721309  0.28160980     0.18300
N390        N  0.13258526  0.27548605  0.18266277     0.75900
H391        H  0.14082828  0.30108428  0.26541516     0.09800
C392        C  0.16495683  0.29782626  0.37292826     0.03500
C393        C  0.16471102  0.31415852  0.41506302    -0.05200
C394        C  0.14423684  0.31830257  0.44127721    -0.23600
C395        C  0.12345517  0.30671755  0.42315635     0.12800
C396        C  0.12401382  0.28978205  0.38170495    -0.12700
N397        N  0.18616937  0.29341167  0.34800450     0.64400
H398        H  0.18082110  0.32256800  0.42841852     0.12300
N399        N  0.10171089  0.31192263  0.44616032     0.61100
H400        H  0.10823776  0.28044973  0.36838416     0.08400
O401        O  0.14462821  0.29621623  0.16964669    -0.40400
O402        O  0.11468214  0.26940490  0.15901174    -0.39600
O403        O  0.13678632  0.20084620  0.37536805    -0.39600
O404        O  0.16256542  0.23228754  0.39348196    -0.37300
O405        O  0.09649183  0.33645706  0.45971496    -0.38200
O406        O  0.08657325  0.29291278  0.44742291    -0.34300
O407        O  0.19053886  0.30729201  0.31029399    -0.35700
O408        O  0.20149601  0.27790562  0.36634325    -0.40000
C409        C  0.11627499  0.27046415  0.79769815    -0.13700
C410        C  0.13627022  0.25622341  0.81291260     0.16700
C411        C  0.15690363  0.26041169  0.78674318     0.03000
C412        C  0.15717553  0.27898046  0.74739951    -0.12200
C413        C  0.13746164  0.29407603  0.73376867    -0.03300
C414        C  0.11682786  0.28981414  0.75948126     0.02200
C415        C  0.13531275  0.23911011  0.85819612     0.09000
N416        N  0.17802849  0.24707553  0.80034918     0.65400
H417        H  0.17304124  0.28188627  0.72769968     0.18300
N418        N  0.09617769  0.30453857  0.74688176     0.75900
H419        H  0.10028913  0.26726997  0.81673118     0.09800
C420        C  0.12582898  0.25032474  0.90114576     0.03500
C421        C  0.12397175  0.23329985  0.94230524    -0.05200
C422        C  0.13271515  0.20574849  0.94299641    -0.23600
C423        C  0.14218129  0.19444130  0.90037027     0.12800
C424        C  0.14274719  0.21089247  0.85805930    -0.12700
N425        N  0.11905325  0.27934552  0.90466482     0.64400
H426        H  0.11745810  0.24246140  0.97500606     0.12300
N427        N  0.15118712  0.16633709  0.89917917     0.61100
H428        H  0.14850814  0.20146315  0.82532402     0.08400
O429        O  0.09415123  0.33021465  0.75760059    -0.40400
O430        O  0.07859476  0.29089016  0.73407522    -0.39600
O431        O  0.18192472  0.22233273  0.78611262    -0.39600
O432        O  0.19490114  0.26231536  0.81195446    -0.37300
O433        O  0.14008183  0.14634442  0.91801254    -0.38200
O434        O  0.16968409  0.16117489  0.87706803    -0.34300
O435        O  0.10150433  0.28611612  0.92882665    -0.35700
O436        O  0.13205767  0.29846561  0.88874571    -0.40000
C437        C  0.87590805  0.22991340  0.31475849    -0.13700
C438        C  0.87386844  0.25898602  0.30752211     0.16700
C439        C  0.87174942  0.26946676  0.26026507     0.03000
C440        C  0.87111996  0.25080858  0.22108577    -0.12200
C441        C  0.87290601  0.22153735  0.22806917    -0.03300
C442        C  0.87544875  0.21118636  0.27564250     0.02200
C443        C  0.87264983  0.27786608  0.35002189     0.09000
N444        N  0.87047985  0.29904752  0.25163453     0.65400
H445        H  0.86948150  0.25932969  0.18496213     0.18300
N446        N  0.87644368  0.18168496  0.28512443     0.75900
H447        H  0.87730881  0.22168190  0.35113227     0.09800
C448        C  0.85132815  0.28686383  0.36899087     0.03500
C449        C  0.85103474  0.30327220  0.41111610    -0.05200
C450        C  0.87147304  0.31049627  0.43542786    -0.23600
C451        C  0.89283813  0.30326095  0.41420803     0.12800
C452        C  0.89312794  0.28667309  0.37213501    -0.12700
N453        N  0.82984158  0.27862664  0.34735722     0.64400
H454        H  0.83455147  0.30856446  0.42693853     0.12300
N455        N  0.91424435  0.31271903  0.43458601     0.61100
H456        H  0.90944356  0.28053607  0.35644405     0.08400
O457        O  0.85832614  0.16867242  0.29639505    -0.40400
O458        O  0.89570660  0.16977642  0.29013175    -0.39600
O459        O  0.88872808  0.31316680  0.24726742    -0.39600
O460        O  0.85127704  0.31053123  0.24359802    -0.37300
O461        O  0.93206360  0.29763091  0.43144503    -0.38200
O462        O  0.91605959  0.33748386  0.45057372    -0.34300
O463        O  0.82681182  0.25373302  0.33289489    -0.35700
O464        O  0.81297926  0.29538265  0.34745303    -0.40000
C465        C  0.88600301  0.26371472  0.81038736    -0.13700
C466        C  0.87555117  0.23727636  0.80484180     0.16700
C467        C  0.86545865  0.23040211  0.75998297     0.03000
C468        C  0.86566325  0.25024690  0.72237912    -0.12200
C469        C  0.87609129  0.27687633  0.72764234    -0.03300
C470        C  0.88634696  0.28350549  0.77264938     0.02200
C471        C  0.87366608  0.21830941  0.84764455     0.09000
N472        N  0.85546472  0.20318656  0.75156782     0.65400
H473        H  0.85792509  0.24442512  0.68825544     0.18300
N474        N  0.89693715  0.31020751  0.78124344     0.75900
H475        H  0.89341429  0.26936878  0.84494028     0.09800
C476        C  0.89317616  0.20977906  0.87448562     0.03500
C477        C  0.89012704  0.19540937  0.91844881    -0.05200
C478        C  0.86809427  0.18858599  0.93592254    -0.23600
C479        C  0.84869331  0.19560380  0.90725699     0.12800
C480        C  0.85170556  0.21065769  0.86408299    -0.12700
N481        N  0.91610029  0.21563958  0.85781011     0.64400
H482        H  0.90513173  0.18978093  0.93954353     0.12300
N483        N  0.82573268  0.18928484  0.92262079     0.61100
H484        H  0.83666372  0.21711660  0.84377006     0.08400
O485        O  0.91733969  0.31118144  0.79681122    -0.40400
O486        O  0.88465515  0.33208523  0.78290020    -0.39600
O487        O  0.83787774  0.20078269  0.72508790    -0.39600
O488        O  0.86542823  0.18125312  0.76659656    -0.37300
O489        O  0.81080945  0.20857315  0.92388160    -0.38200
O490        O  0.81928666  0.16399400  0.92523348    -0.34300
O491        O  0.93202299  0.22052091  0.88769314    -0.35700
O492        O  0.92097674  0.21352110  0.81355740    -0.40000
C493        C  0.98262968  0.35053961  0.63634980    -0.13700
C494        C  0.99416890  0.33703577  0.59831482     0.16700
C495        C  0.98116503  0.32171960  0.56392914     0.03000
C496        C  0.95710453  0.31994279  0.56909189    -0.12200
C497        C  0.94562902  0.33394692  0.60664186    -0.03300
C498        C  0.95861801  0.34928853  0.64076168     0.02200
C499        C  0.01983801  0.33824389  0.59694398     0.09000
N500        N  0.99190306  0.30886063  0.52271614     0.65400
H501        H  0.94715659  0.30858426  0.54240658     0.18300
N502        N  0.94782948  0.36270462  0.68123899     0.75900
H503        H  0.99245538  0.36166529  0.66351578     0.09800
C504        C  0.03177507  0.36410839  0.59856583     0.03500
C505        C  0.05589873  0.36414769  0.60128942    -0.05200
C506        C  0.06877721  0.33901549  0.60143182    -0.23600
C507        C  0.05672642  0.31315780  0.59860379     0.12800
C508        C  0.03253941  0.31308795  0.59722248    -0.12700
N509        N  0.01974212  0.39052619  0.59707598     0.64400
H510        H  0.06463818  0.38421538  0.60282158     0.12300
N511        N  0.06856992  0.28674926  0.59737966     0.61100
H512        H  0.02355893  0.29315436  0.59639975     0.08400
O513        O  0.95385526  0.38714789  0.69367225    -0.40400
O514        O  0.93421875  0.34903445  0.70783832    -0.39600
O515        O  0.98387799  0.28636998  0.50534187    -0.39600
O516        O  0.00773347  0.32148077  0.50031647    -0.37300
O517        O  0.06367246  0.26795781  0.62785883    -0.38200
O518        O  0.08040346  0.28030535  0.56084481    -0.34300
O519        O  0.02668098  0.41098196  0.62220532    -0.35700
O520        O  0.00335786  0.39424150  0.56777714    -0.40000
C521        C  0.74428218  0.11472746  0.32427308    -0.13700
C522        C  0.74433941  0.12177427  0.27500404     0.16700
C523        C  0.72314490  0.12786824  0.25209690     0.03000
C524        C  0.70266388  0.12729746  0.27904282    -0.12200
C525        C  0.70263477  0.12150208  0.32893864    -0.03300
C526        C  0.72384435  0.11459516  0.35135564     0.02200
C527        C  0.76663576  0.12243186  0.24810231     0.09000
N528        N  0.72216316  0.13611869  0.20222077     0.65400
H529        H  0.68674681  0.13287467  0.26109946     0.18300
N530        N  0.72519667  0.10818735  0.40178015     0.75900
H531        H  0.76032692  0.10946475  0.34200099     0.09800
C532        C  0.78542821  0.13892749  0.26388829     0.03500
C533        C  0.80594475  0.13905613  0.23706781    -0.05200
C534        C  0.80822725  0.12360616  0.19394167    -0.23600
C535        C  0.78966633  0.10630706  0.17917764     0.12800
C536        C  0.76919224  0.10597695  0.20628366    -0.12700
N537        N  0.78369352  0.15681829  0.30555215     0.64400
H538        H  0.81966989  0.15268649  0.24861901     0.12300
N539        N  0.79126122  0.08869484  0.13726554     0.61100
H540        H  0.75518822  0.09265684  0.19479304     0.08400
O541        O  0.73818173  0.12247361  0.42884566    -0.40400
O542        O  0.71660055  0.08560948  0.41748922    -0.39600
O543        O  0.70596478  0.12754964  0.17563988    -0.39600
O544        O  0.73591705  0.15434831  0.18601407    -0.37300
O545        O  0.80787546  0.07176272  0.13291280    -0.38200
O546        O  0.77452568  0.08705826  0.10830757    -0.34300
O547        O  0.80066502  0.15956887  0.33364341    -0.35700
O548        O  0.76625339  0.17229025  0.31140941    -0.40000
C549        C  0.76556202  0.26825589  0.56558960    -0.13700
C550        C  0.76593395  0.25362496  0.52175031     0.16700
C551        C  0.78664408  0.25116541  0.49546177     0.03000
C552        C  0.80668278  0.26324216  0.51411478    -0.12200
C553        C  0.80623648  0.27853700  0.55734926    -0.03300
C554        C  0.78559380  0.28059546  0.58390218     0.02200
C555        C  0.74494458  0.23921820  0.50554614     0.09000
N556        N  0.78737985  0.23752615  0.44912816     0.65400
H557        H  0.82235498  0.26239620  0.49295112     0.18300
N558        N  0.78484255  0.29483000  0.62954457     0.75900
H559        H  0.74972023  0.26950071  0.58612042     0.09800
C560        C  0.74415950  0.20963712  0.50290580     0.03500
C561        C  0.72512124  0.19686336  0.48142338    -0.05200
C562        C  0.70651607  0.21283434  0.46391582    -0.23600
C563        C  0.70720198  0.24240942  0.46750503     0.12800
C564        C  0.72638125  0.25533023  0.48864977    -0.12700
N565        N  0.76224305  0.19234542  0.52262565     0.64400
H566        H  0.72441283  0.17413163  0.48048845     0.12300
N567        N  0.68913792  0.25956014  0.44809503     0.61100
H568        H  0.72725481  0.27805396  0.49015473     0.08400
O569        O  0.79996779  0.28994007  0.66123556    -0.40400
O570        O  0.76824246  0.31093288  0.63947265    -0.39600
O571        O  0.77144414  0.24137619  0.41880303    -0.39600
O572        O  0.80511857  0.22412487  0.43637809    -0.37300
O573        O  0.68326357  0.25690504  0.40444517    -0.38200
O574        O  0.68078743  0.27935697  0.47285123    -0.34300
O575        O  0.77211245  0.19916678  0.56152679    -0.35700
O576        O  0.76672357  0.16872942  0.50404941    -0.40000
C577        C  0.52918816  0.18920634  0.38942009    -0.13700
C578        C  0.51742411  0.16540319  0.40617287     0.16700
C579        C  0.52999149  0.14113711  0.41923746     0.03000
C580        C  0.55406903  0.14136408  0.41552354    -0.12200
C581        C  0.56594053  0.16542693  0.39976285    -0.03300
C582        C  0.55321935  0.18944828  0.38557049     0.02200
C583        C  0.49193542  0.16613666  0.40754556     0.09000
N584        N  0.51868896  0.11651033  0.43764185     0.65400
H585        H  0.56363199  0.12290048  0.42666033     0.18300
N586        N  0.56418943  0.21357437  0.36463381     0.75900
H587        H  0.51948943  0.20747921  0.37785448     0.09800
C588        C  0.48010662  0.18665556  0.43468410     0.03500
C589        C  0.45606334  0.18782075  0.43250744    -0.05200
C590        C  0.44332619  0.16875064  0.40427349    -0.23600
C591        C  0.45528829  0.14824346  0.37723862     0.12800
C592        C  0.47937411  0.14719220  0.37896934    -0.12700
N593        N  0.49219246  0.20621714  0.46501550     0.64400
H594        H  0.44729485  0.20373433  0.45354753     0.12300
N595        N  0.44332180  0.12824006  0.34808813     0.61100
H596        H  0.48836336  0.13162413  0.35755414     0.08400
O597        O  0.55730901  0.23798680  0.37524956    -0.40400
O598        O  0.57791277  0.21047369  0.32975308    -0.39600
O599        O  0.52576457  0.09234428  0.42599647    -0.39600
O600        O  0.50297607  0.11875662  0.46882977    -0.37300
O601        O  0.44177476  0.13198315  0.30310242    -0.38200
O602        O  0.43649793  0.10543687  0.36642256    -0.34300
O603        O  0.48573149  0.23153595  0.46731108    -0.35700
O604        O  0.50807072  0.19779337  0.49262260    -0.40000
C605        C  0.27855797  0.11657911  0.28051208    -0.13700
C606        C  0.26293866  0.13912902  0.27774552     0.16700
C607        C  0.26623474  0.16288237  0.30742660     0.03000
C608        C  0.28469239  0.16350955  0.34015390    -0.12200
C609        C  0.30053657  0.14113687  0.34277409    -0.03300
C610        C  0.29730769  0.11740450  0.31279228     0.02200
C611        C  0.24215253  0.13676824  0.24662551     0.09000
N612        N  0.25141534  0.18701031  0.30383174     0.65400
H613        H  0.28721233  0.18179868  0.36158637     0.18300
N614        N  0.31224392  0.09343802  0.31581877     0.75900
H615        H  0.27583617  0.09836153  0.25891953     0.09800
C616        C  0.24336769  0.13399950  0.19589172     0.03500
C617        C  0.22289744  0.13418161  0.16855816    -0.05200
C618        C  0.20126443  0.13729484  0.19079298    -0.23600
C619        C  0.20015854  0.13779163  0.24191520     0.12800
C620        C  0.22054538  0.13786127  0.26899413    -0.12700
N621        N  0.26508862  0.13240244  0.17127823     0.64400
H622        H  0.22403299  0.13367362  0.12974424     0.12300
N623        N  0.17857843  0.13801236  0.26715112     0.61100
H624        H  0.21957926  0.13883122  0.30778160     0.08400
O625        O  0.31583503  0.08176690  0.35607652    -0.40400
O626        O  0.31949412  0.08182071  0.27782671    -0.39600
O627        O  0.24518293  0.19991961  0.34138841    -0.39600
O628        O  0.24603064  0.19681532  0.26295804    -0.37300
O629        O  0.16322365  0.12028725  0.25652921    -0.38200
O630        O  0.17608561  0.15305290  0.30432562    -0.34300
O631        O  0.26719459  0.11706269  0.13437025    -0.35700
O632        O  0.28157096  0.14815111  0.18351285    -0.40000
C633        C  0.23614260  0.26631058  0.51752267    -0.13700
C634        C  0.25607938  0.28284087  0.52023165     0.16700
C635        C  0.25524627  0.30921827  0.54340311     0.03000
C636        C  0.23451486  0.31814998  0.56413018    -0.12200
C637        C  0.21420313  0.30206014  0.56026536    -0.03300
C638        C  0.21531542  0.27558638  0.53728656     0.02200
C639        C  0.27781868  0.27128252  0.50089782     0.09000
N640        N  0.27493554  0.32755475  0.54453430     0.65400
H641        H  0.23404866  0.33869205  0.58099102     0.18300
N642        N  0.19546787  0.25803895  0.53294288     0.75900
H643        H  0.23683261  0.24587697  0.50024336     0.09800
C644        C  0.29680614  0.26550439  0.53125437     0.03500
C645        C  0.31635196  0.25287993  0.51141703    -0.05200
C646        C  0.31721150  0.24521072  0.46252411    -0.23600
C647        C  0.29901509  0.25288766  0.43137381     0.12800
C648        C  0.27936952  0.26567972  0.45122506    -0.12700
N649        N  0.29606805  0.27050113  0.58248877     0.64400
H650        H  0.33023772  0.24659517  0.53530450     0.12300
N651        N  0.29966660  0.24668779  0.38053488     0.61100
H652        H  0.26498665  0.27096517  0.42801233     0.08400
O653        O  0.18789303  0.24518480  0.56947033    -0.40400
O654        O  0.18706518  0.25296333  0.49183515    -0.39600
O655        O  0.28793030  0.32963272  0.50823122    -0.39600
O656        O  0.27802787  0.34392413  0.57978438    -0.37300
O657        O  0.28119602  0.24317399  0.35729492    -0.38200
O658        O  0.31830227  0.24854328  0.35744147    -0.34300
O659        O  0.27825644  0.26463740  0.60648149    -0.35700
O660        O  0.31412546  0.27758321  0.60476341    -0.40000
C661        C  0.36520435  0.21009563  0.65654820    -0.13700
C662        C  0.38390272  0.22852974  0.66207972     0.16700
C663        C  0.40196442  0.22801329  0.62792054     0.03000
C664        C  0.39946956  0.21139484  0.58638390    -0.12200
C665        C  0.37980632  0.19476728  0.57898418    -0.03300
C666        C  0.36314462  0.19301662  0.61563397     0.02200
C667        C  0.38312534  0.24928597  0.70202093     0.09000
N668        N  0.42228024  0.24500174  0.63376691     0.65400
H669        H  0.41237601  0.21254954  0.55824693     0.18300
N670        N  0.34283408  0.17646089  0.60933947     0.75900
H671        H  0.35147827  0.21006680  0.68299730     0.09800
C672        C  0.38336451  0.27874581  0.69391424     0.03500
C673        C  0.38221421  0.29714823  0.73362918    -0.05200
C674        C  0.38005029  0.28684260  0.78086644    -0.23600
C675        C  0.38033526  0.25733670  0.78863771     0.12800
C676        C  0.38164575  0.23908099  0.74922890    -0.12700
N677        N  0.38383281  0.29032558  0.64592717     0.64400
H678        H  0.38181040  0.31962840  0.72739659     0.12300
N679        N  0.37985298  0.24543143  0.83627323     0.61100
H680        H  0.38186042  0.21658787  0.75553174     0.08400
O681        O  0.32339488  0.18822953  0.60695793    -0.40400
O682        O  0.34411005  0.14997585  0.61047516    -0.39600
O683        O  0.43058256  0.24939280  0.67522011    -0.39600
O684        O  0.43307814  0.25380708  0.59724604    -0.37300
O685        O  0.36713752  0.22454488  0.84504923    -0.38200
O686        O  0.39448190  0.25299172  0.86738080    -0.34300
O687        O  0.37210866  0.27933084  0.61250886    -0.35700
O688        O  0.39400046  0.31331593  0.63801191    -0.40000
C689        C  0.35751844  0.23064322  0.19557579    -0.13700
C690        C  0.37081185  0.25531649  0.19445234     0.16700
C691        C  0.38495325  0.26188872  0.23442087     0.03000
C692        C  0.38580309  0.24335831  0.27379375    -0.12200
C693        C  0.37242707  0.21866815  0.27538943    -0.03300
C694        C  0.35812904  0.21240962  0.23550441     0.02200
C695        C  0.37026110  0.27339325  0.15057755     0.09000
N696        N  0.39827265  0.28737821  0.23606064     0.65400
H697        H  0.39673917  0.24877958  0.30407213     0.18300
N698        N  0.34387737  0.18794031  0.23511829     0.75900
H699        H  0.34662849  0.22545492  0.16506368     0.09800
C700        C  0.39022686  0.27858376  0.12276670     0.03500
C701        C  0.38883045  0.29660561  0.08264469    -0.05200
C702        C  0.36791173  0.30910179  0.06852496    -0.23600
C703        C  0.34817658  0.30432302  0.09727544     0.12800
C704        C  0.34952042  0.28648220  0.13753972    -0.12700
N705        N  0.41179495  0.26505044  0.13355491     0.64400
H706        H  0.40406384  0.29972226  0.06082765     0.12300
N707        N  0.32643163  0.31659271  0.08531699     0.61100
H708        H  0.33423233  0.28290906  0.15901701     0.08400
O709        O  0.34962118  0.16685395  0.21025429    -0.40400
O710        O  0.32425616  0.18871621  0.25451340    -0.39600
O711        O  0.38998248  0.31018866  0.22044528    -0.39600
O712        O  0.41747638  0.28774516  0.25742558    -0.37300
O713        O  0.31020276  0.30123124  0.07048707    -0.38200
O714        O  0.32259238  0.34207189  0.09519827    -0.34300
O715        O  0.41231741  0.23969423  0.14704065    -0.35700
O716        O  0.43052089  0.27750731  0.12495343    -0.40000
C717        C  0.28003841  0.25034044  0.97399925    -0.13700
C718        C  0.25970259  0.26627686  0.97590333     0.16700
C719        C  0.25962207  0.29413745  0.95827534     0.03000
C720        C  0.27989879  0.30533237  0.93952981    -0.12200
C721        C  0.30073051  0.29020416  0.94092895    -0.03300
C722        C  0.30051681  0.26204430  0.95686400     0.02200
C723        C  0.23911819  0.25373460  0.99836475     0.09000
N724        N  0.23970794  0.31200433  0.96197517     0.65400
H725        H  0.27963677  0.32699099  0.92750097     0.18300
N726        N  0.32093375  0.24526792  0.95696935     0.75900
H727        H  0.28008815  0.22881676  0.98680738     0.09800
C728        C  0.21750760  0.25328013  0.97483406     0.03500
C729        C  0.19832879  0.24335725  0.99991736    -0.05200
C730        C  0.20049440  0.23245396  0.04667456    -0.23600
C731        C  0.22200607  0.23275700  0.07018819     0.12800
C732        C  0.24108450  0.24354000  0.04576064    -0.12700
N733        N  0.21480769  0.26193141  0.92540578     0.64400
H734        H  0.18192359  0.24203607  0.98132749     0.12300
N735        N  0.22465137  0.22235834  0.11863655     0.61100
H736        H  0.25755092  0.24442241  0.06413862     0.08400
O737        O  0.32870074  0.23574757  0.91772963    -0.40400
O738        O  0.32953600  0.23714462  0.99644326    -0.39600
O739        O  0.22820971  0.31282943  0.00057827    -0.39600
O740        O  0.23532093  0.32959159  0.92905211    -0.37300
O741        O  0.20943858  0.22727005  0.15002454    -0.38200
O742        O  0.24294606  0.20998299  0.13112433    -0.34300
O743        O  0.22999367  0.25607434  0.89444839    -0.35700
O744        O  0.19626160  0.27328144  0.91172271    -0.40000
C745        C  0.26722561  0.39601664  0.81680674    -0.13700
C746        C  0.26655343  0.38802306  0.76814550     0.16700
C747        C  0.28714543  0.37950757  0.74533308     0.03000
C748        C  0.30776053  0.37856720  0.77207694    -0.12200
C749        C  0.30834379  0.38546270  0.82152962    -0.03300
C750        C  0.28772983  0.39502417  0.84351668     0.02200
C751        C  0.24403184  0.38828986  0.74233330     0.09000
N752        N  0.28717549  0.37011666  0.69606691     0.65400
H753        H  0.32320234  0.37095859  0.75454564     0.18300
N754        N  0.28705848  0.40331066  0.89316369     0.75900
H755        H  0.25156623  0.40296825  0.83435346     0.09800
C756        C  0.22563381  0.37114179  0.75775378     0.03500
C757        C  0.20448044  0.37234714  0.73334289    -0.05200
C758        C  0.20125289  0.38971642  0.69271806    -0.23600
C759        C  0.21952203  0.40750890  0.67818112     0.12800
C760        C  0.24069411  0.40643643  0.70291424    -0.12700
N761        N  0.22852875  0.35126093  0.79636338     0.64400
H762        H  0.19091498  0.35816152  0.74449799     0.12300
N763        N  0.21677899  0.42709567  0.63916704     0.61100
H764        H  0.25459394  0.42011798  0.69172140     0.08400
O765        O  0.27368779  0.39093112  0.92204738    -0.40400
O766        O  0.29702840  0.42559969  0.90633397    -0.39600
O767        O  0.30396012  0.37577929  0.66888920    -0.39600
O768        O  0.27173444  0.35359930  0.68115673    -0.37300
O769        O  0.19973048  0.44357028  0.63841082    -0.38200
O770        O  0.23267605  0.43029799  0.60866483    -0.34300
O771        O  0.21255898  0.34744467  0.82648531    -0.35700
O772        O  0.24586631  0.33524692  0.79727246    -0.40000
C773        C  0.73240505  0.24441934  0.93664346    -0.13700
C774        C  0.73550552  0.23920642  0.98607652     0.16700
C775        C  0.71725681  0.24382594  0.01860060     0.03000
C776        C  0.69663918  0.25485139  0.00119562    -0.12200
C777        C  0.69414580  0.26247268  0.95255373    -0.03300
C778        C  0.71167415  0.25584637  0.91917558     0.02200
C779        C  0.75759314  0.22798617  0.00349391     0.09000
N780        N  0.71989220  0.23932609  0.06966962     0.65400
H781        H  0.68325941  0.26033763  0.02680735     0.18300
N782        N  0.70911029  0.26159285  0.86842647     0.75900
H783        H  0.74629052  0.23977504  0.91183629     0.09800
C784        C  0.75878370  0.20083542  0.02348609     0.03500
C785        C  0.77889715  0.19247655  0.04693289    -0.05200
C786        C  0.79831183  0.21017994  0.04958436    -0.23600
C787        C  0.79698585  0.23741876  0.02947069     0.12800
C788        C  0.77667606  0.24597516  0.00626354    -0.12700
N789        N  0.73984925  0.18146670  0.01976143     0.64400
H790        H  0.77959386  0.17128941  0.06121733     0.12300
N791        N  0.81573288  0.25679872  0.03335475     0.61100
H792        H  0.77542890  0.26714724  0.99200885     0.08400
O793        O  0.68978101  0.25878501  0.84818253    -0.40400
O794        O  0.72662371  0.26566236  0.84245697    -0.39600
O795        O  0.73762147  0.24803112  0.09137877    -0.39600
O796        O  0.70331411  0.22983741  0.09412445    -0.37300
O797        O  0.82316609  0.26918963  0.99623184    -0.38200
O798        O  0.82307178  0.26398030  0.07445134    -0.34300
O799        O  0.72839610  0.17972334  0.98111349    -0.35700
O800        O  0.73591422  0.16417252  0.05334146    -0.40000
C801        C  0.73550373  0.39786313  0.79364561    -0.13700
C802        C  0.74812734  0.37395110  0.77982184     0.16700
C803        C  0.74113824  0.34730956  0.79629220     0.03000
C804        C  0.72194086  0.34476689  0.82645181    -0.12200
C805        C  0.70902366  0.36848999  0.83978947    -0.03300
C806        C  0.71593367  0.39525804  0.82329835     0.02200
C807        C  0.76935434  0.37672633  0.75037336     0.09000
N808        N  0.75316685  0.32249511  0.78172882     0.65400
H809        H  0.71679320  0.32422212  0.83848400     0.18300
N810        N  0.70419277  0.42006455  0.83884912     0.75900
H811        H  0.74098023  0.41838503  0.78199257     0.09800
C812        C  0.76839805  0.38148221  0.70032438     0.03500
C813        C  0.78861456  0.38022899  0.67265222    -0.05200
C814        C  0.81011561  0.37440776  0.69416340    -0.23600
C815        C  0.81116664  0.37171148  0.74521292     0.12800
C816        C  0.79076636  0.37236485  0.77239790    -0.12700
N817        N  0.74681280  0.38593691  0.67677580     0.64400
H818        H  0.78725609  0.38248716  0.63387433     0.12300
N819        N  0.83266778  0.36852068  0.77020731     0.61100
H820        H  0.79156610  0.36933916  0.81109461     0.08400
O821        O  0.68655969  0.42845010  0.81644842    -0.40400
O822        O  0.71302191  0.43539814  0.87107889    -0.39600
O823        O  0.76427494  0.30826483  0.81234587    -0.39600
O824        O  0.75146179  0.31379880  0.73885684    -0.37300
O825        O  0.84881542  0.38568393  0.76253536    -0.38200
O826        O  0.83425027  0.35168310  0.80530921    -0.34300
O827        O  0.74019361  0.41059895  0.66724756    -0.35700
O828        O  0.73378072  0.36536950  0.66789184    -0.40000
C829        C  0.65594437  0.21434849  0.64541764    -0.13700
C830        C  0.63685357  0.23172447  0.65355704     0.16700
C831        C  0.61798300  0.23040592  0.62167233     0.03000
C832        C  0.61877636  0.21220799  0.58175511    -0.12200
C833        C  0.63805485  0.19495951  0.57270302    -0.03300
C834        C  0.65676107  0.19604247  0.60565512     0.02200
C835        C  0.63694277  0.25107709  0.69567032     0.09000
N836        N  0.59797212  0.24751904  0.62920378     0.65400
H837        H  0.60428705  0.21200940  0.55713201     0.18300
N838        N  0.67712338  0.17963294  0.59847052     0.75900
H839        H  0.67045545  0.21521893  0.66997444     0.09800
C840        C  0.63406435  0.24067274  0.74288796     0.03500
C841        C  0.63456843  0.25934158  0.78200238    -0.05200
C842        C  0.63780403  0.28844975  0.77544853    -0.23600
C843        C  0.64143700  0.29867468  0.72818978     0.12800
C844        C  0.64068608  0.28001297  0.68875807    -0.12700
N845        N  0.63010220  0.21131711  0.75166054     0.64400
H846        H  0.63199928  0.25095913  0.81795899     0.12300
N847        N  0.64554667  0.32786400  0.71951794     0.61100
H848        H  0.64326514  0.28807382  0.65258941     0.08400
O849        O  0.67643140  0.15328374  0.60372138    -0.40400
O850        O  0.69630614  0.19168758  0.59337152    -0.39600
O851        O  0.58921894  0.26097174  0.59443474    -0.39600
O852        O  0.58801410  0.24762515  0.66967062    -0.37300
O853        O  0.66552166  0.33774880  0.72504097    -0.38200
O854        O  0.63012068  0.34279894  0.70019294    -0.34300
O855        O  0.64010985  0.19911540  0.78630712    -0.35700
O856        O  0.61498656  0.19820208  0.72790151    -0.40000
C857        C  0.63317085  0.26596290  0.25078675    -0.13700
C858        C  0.63440804  0.25535781  0.20375780     0.16700
C859        C  0.63604815  0.22587206  0.19663556     0.03000
C860        C  0.63565043  0.20781968  0.23694769    -0.12200
C861        C  0.63440851  0.21848054  0.28409421    -0.03300
C862        C  0.63288325  0.24798812  0.29087309     0.02200
C863        C  0.63283026  0.27547871  0.16274628     0.09000
N864        N  0.63867399  0.21398855  0.14915320     0.65400
H865        H  0.63723362  0.18533990  0.23158481     0.18300
N866        N  0.63000655  0.26007042  0.33796350     0.75900
H867        H  0.63154982  0.28843915  0.25627860     0.09800
C868        C  0.61496271  0.27371361  0.12815796     0.03500
C869        C  0.61629407  0.29016491  0.08618915    -0.05200
C870        C  0.63472700  0.30869269  0.07818187    -0.23600
C871        C  0.65137090  0.31217280  0.11469201     0.12800
C872        C  0.65031939  0.29556316  0.15654726    -0.12700
N873        N  0.59592406  0.25468679  0.13418278     0.64400
H874        H  0.60331758  0.28761360  0.05838564     0.12300
N875        N  0.67073702  0.33015295  0.10751899     0.61100
H876        H  0.66396754  0.29721119  0.18310013     0.08400
O877        O  0.61383162  0.25187732  0.36486350    -0.40400
O878        O  0.64138435  0.28158747  0.34982283    -0.39600
O879        O  0.65058100  0.22638963  0.11757858    -0.39600
O880        O  0.63103398  0.18970636  0.14011789    -0.37300
O881        O  0.66962022  0.35567314  0.11972853    -0.38200
O882        O  0.68959756  0.31998434  0.09324628    -0.34300
O883        O  0.58736501  0.25050391  0.17542287    -0.35700
O884        O  0.58639222  0.24372733  0.09778403    -0.40000
C885        C  0.48060019  0.31519929  0.90381988    -0.13700
C886        C  0.49236153  0.34076062  0.90967191     0.16700
C887        C  0.47951202  0.36597944  0.91313431     0.03000
C888        C  0.45538794  0.36494707  0.91014402    -0.12200
C889        C  0.44356216  0.33928069  0.90529004    -0.03300
C890        C  0.45653636  0.31416665  0.90252157     0.02200
C891        C  0.51801503  0.34054809  0.91045109     0.09000
N892        N  0.49052540  0.39266918  0.92083066     0.65400
H893        H  0.44579631  0.38438801  0.91290761     0.18300
N894        N  0.44566709  0.28738743  0.89757150     0.75900
H895        H  0.49020077  0.29579935  0.90026759     0.09800
C896        C  0.53049352  0.32273163  0.94190870     0.03500
C897        C  0.55457923  0.32213126  0.93937647    -0.05200
C898        C  0.56685245  0.33949114  0.90725814    -0.23600
C899        C  0.55431454  0.35790415  0.87683484     0.12800
C900        C  0.53015366  0.35764946  0.87786574    -0.12700
N901        N  0.51910740  0.30541028  0.97708853     0.64400
H902        H  0.56376208  0.30807048  0.96333248     0.12300
N903        N  0.56567175  0.37750901  0.84565141     0.61100
H904        H  0.52076383  0.37128565  0.85352785     0.08400
O905        O  0.44112094  0.27307976  0.93472540    -0.40400
O906        O  0.44381264  0.27631708  0.85636930    -0.39600
O907        O  0.48262759  0.41456471  0.90100927    -0.39600
O908        O  0.50666852  0.39495862  0.95111644    -0.37300
O909        O  0.55988614  0.37918845  0.80181127    -0.38200
O910        O  0.57842645  0.39629732  0.86353715    -0.34300
O911        O  0.52666760  0.28109857  0.98638228    -0.35700
O912        O  0.50292464  0.31528499  0.00228838    -0.40000
C913        C  0.11272829  0.53585203  0.46216525    -0.13700
C914        C  0.12806402  0.52625552  0.49794915     0.16700
C915        C  0.14540000  0.54457789  0.51512706     0.03000
C916        C  0.14610173  0.57230869  0.49817925    -0.12200
C917        C  0.13072271  0.58203289  0.46272049    -0.03300
C918        C  0.11390152  0.56353503  0.44444855     0.02200
C919        C  0.12605049  0.49698147  0.51649661     0.09000
N920        N  0.16291906  0.53517360  0.54821280     0.65400
H921        H  0.15956362  0.58610739  0.51126719     0.18300
N922        N  0.09734719  0.57286457  0.40963069     0.75900
H923        H  0.09944833  0.52191426  0.44871589     0.09800
C924        C  0.12414957  0.49091389  0.56643537     0.03500
C925        C  0.12687294  0.46300140  0.58234735    -0.05200
C926        C  0.13075759  0.44088213  0.54966572    -0.23600
C927        C  0.13037433  0.44687198  0.49949076     0.12800
C928        C  0.12840803  0.47477363  0.48369744    -0.12700
N929        N  0.12011158  0.51280179  0.60134758     0.64400
H930        H  0.12651923  0.45867207  0.62071491     0.12300
N931        N  0.13220174  0.42503466  0.46399527     0.61100
H932        H  0.12935243  0.47924976  0.44539138     0.08400
O933        O  0.08409777  0.59310157  0.41949186    -0.40400
O934        O  0.09437196  0.55918278  0.37110469    -0.39600
O935        O  0.17212412  0.51130401  0.54306834    -0.39600
O936        O  0.17122439  0.55197656  0.57889991    -0.37300
O937        O  0.11801735  0.40494523  0.46403660    -0.38200
O938        O  0.14585304  0.42774855  0.42890248    -0.34300
O939        O  0.10749323  0.53358043  0.59100198    -0.35700
O940        O  0.12770673  0.51040173  0.64388566    -0.40000
C941        C  0.87110189  0.46608734  0.49145794    -0.13700
C942        C  0.88243731  0.48564843  0.52080295     0.16700
C943        C  0.89035854  0.47699568  0.56694520     0.03000
C944        C  0.88619088  0.44923151  0.58269615    -0.12200
C945        C  0.87455529  0.42969946  0.55338576    -0.03300
C946        C  0.86702742  0.43855344  0.50698996     0.02200
C947        C  0.88282650  0.51562737  0.50461037     0.09000
N948        N  0.90280405  0.49591795  0.59792656     0.65400
H949        H  0.89235371  0.44277478  0.61789115     0.18300
N950        N  0.85412246  0.42045247  0.47578734     0.75900
H951        H  0.86432260  0.47264112  0.45677975     0.09800
C952        C  0.89075413  0.52375036  0.45821208     0.03500
C953        C  0.88693331  0.55147237  0.44184330    -0.05200
C954        C  0.87558626  0.57133210  0.47081613    -0.23600
C955        C  0.86894245  0.56347961  0.51806798     0.12800
C956        C  0.87224810  0.53582624  0.53400067    -0.12700
N957        N  0.90232118  0.50408936  0.42713162     0.64400
H958        H  0.89229936  0.55733925  0.40581462     0.12300
N959        N  0.85908137  0.58347537  0.55069731     0.61100
H960        H  0.86607242  0.52992791  0.56945000     0.08400
O961        O  0.86157550  0.41503280  0.43404203    -0.40400
O962        O  0.83363768  0.41421585  0.48639224    -0.39600
O963        O  0.90108600  0.49384604  0.64322008    -0.39600
O964        O  0.91698780  0.51321006  0.58038923    -0.37300
O965        O  0.84052215  0.57786960  0.57223444    -0.38200
O966        O  0.87075979  0.60445951  0.56391407    -0.34300
O967        O  0.89981019  0.50559099  0.38192287    -0.35700
O968        O  0.91628572  0.48637899  0.44440265    -0.40000
C969        C  0.97506975  0.65185992  0.40194560    -0.13700
C970        C  0.98614314  0.67782306  0.40877679     0.16700
C971        C  0.97254166  0.70231173  0.41518920     0.03000
C972        C  0.94843195  0.69980275  0.41737028    -0.12200
C973        C  0.93745556  0.67379597  0.41052918    -0.03300
C974        C  0.95102858  0.64963880  0.40249053     0.02200
C975        C  0.01184959  0.67840320  0.40913613     0.09000
N976        N  0.98273618  0.72983797  0.41776881     0.65400
H977        H  0.93807474  0.71854990  0.42210684     0.18300
N978        N  0.94074031  0.62248652  0.39696469     0.75900
H979        H  0.98524055  0.63295285  0.39721368     0.09800
C980        C  0.02483434  0.69067028  0.44715161     0.03500
C981        C  0.04900977  0.69138603  0.44379364    -0.05200
C982        C  0.06057548  0.67853052  0.40524842    -0.23600
C983        C  0.04763832  0.66556568  0.36834548     0.12800
C984        C  0.02357633  0.66613124  0.37015226    -0.12700
N985        N  0.01396243  0.70162762  0.48983299     0.64400
H986        H  0.05894982  0.70091109  0.47257892     0.12300
N987        N  0.05863018  0.65255980  0.32788175     0.61100
H988        H  0.01392301  0.65672154  0.34082244     0.08400
O989        O  0.92914859  0.61211376  0.43106945    -0.40400
O990        O  0.94599580  0.60726614  0.36132605    -0.39600
O991        O  0.99966084  0.73606999  0.39134179    -0.39600
O992        O  0.97332730  0.74893243  0.44251697    -0.37300
O993        O  0.06763638  0.62856087  0.33264609    -0.38200
O994        O  0.05522625  0.66219209  0.28602463    -0.34300
O995        O  0.99704345  0.68902718  0.50842604    -0.35700
O996        O  0.02280764  0.72210648  0.51212000    -0.40000
C997        C  0.88184624  0.03583442  0.99061079    -0.13700
C998        C  0.87355752  0.01356912  0.01899108     0.16700
C999        C  0.86691603  0.01906607  0.06730375     0.03000
C1000       C  0.86823408  0.04665144  0.08537426    -0.12200
C1001       C  0.87512283  0.06911845  0.05589125    -0.03300
C1002       C  0.88253786  0.06348095  0.00824138     0.02200
C1003       C  0.87264214  0.98473775  0.99770182     0.09000
N1004       N  0.85747487  0.99739408  0.09752841     0.65400
H1005       H  0.86206842  0.05089680  0.12153032     0.18300
N1006       N  0.89077985  0.08555146  0.97733075     0.75900
H1007       H  0.88775721  0.03166020  0.95425067     0.09800
C1008       C  0.86183427  0.97933900  0.95268718     0.03500
C1009       C  0.86237244  0.95200384  0.93332559    -0.05200
C1010       C  0.87241403  0.92964352  0.95881206    -0.23600
C1011       C  0.88323238  0.93504239  0.00349913     0.12800
C1012       C  0.88350672  0.96246238  0.02208592    -0.12700
N1013       N  0.84914912  0.00082704  0.92755513     0.64400
H1014       H  0.85346067  0.94777848  0.89973548     0.12300
N1015       N  0.89427220  0.91295094  0.03009554     0.61100
H1016       H  0.89235142  0.96643603  0.05583593     0.08400
O1017       O  0.88584387  0.08550823  0.93293063    -0.40400
O1018       O  0.90447271  0.10389345  0.99345514    -0.39600
O1019       O  0.86200137  0.99699513  0.14211184    -0.39600
O1020       O  0.84255241  0.98066026  0.08106289    -0.37300
O1021       O  0.90911209  0.89756921  0.00989940    -0.38200
O1022       O  0.89053635  0.91015847  0.07471233    -0.34300
O1023       O  0.84881909  0.00123981  0.88198829    -0.35700
O1024       O  0.83602612  0.01723393  0.95047438    -0.40000
C1025       C  0.88247775  0.73067752  0.75383510    -0.13700
C1026       C  0.87898902  0.74081650  0.70695977     0.16700
C1027       C  0.87520286  0.77001593  0.69963465     0.03000
C1028       C  0.87596527  0.78837303  0.73939331    -0.12200
C1029       C  0.87932366  0.77812480  0.78629705    -0.03300
C1030       C  0.88277628  0.74895883  0.79338171     0.02200
C1031       C  0.87984715  0.72065999  0.66607372     0.09000
N1032       N  0.86965613  0.78117738  0.65271352     0.65400
H1033       H  0.87264529  0.81057951  0.73403977     0.18300
N1034       N  0.88722733  0.73766017  0.84043040     0.75900
H1035       H  0.88551505  0.70843932  0.75960661     0.09800
C1036       C  0.89519605  0.72456934  0.62712452     0.03500
C1037       C  0.89173151  0.70922533  0.58455673    -0.05200
C1038       C  0.87376217  0.68965546  0.58040518    -0.23600
C1039       C  0.86013546  0.68354693  0.62112831     0.12800
C1040       C  0.86344000  0.69899095  0.66376975    -0.12700
N1041       N  0.91363843  0.74473392  0.62955543     0.64400
H1042       H  0.90252515  0.71342937  0.55350979     0.12300
N1043       N  0.84142356  0.66402158  0.61840327     0.61100
H1044       H  0.85183915  0.69569382  0.69382797     0.08400
O1045       O  0.90456914  0.74575553  0.86409967    -0.40400
O1046       O  0.87502289  0.71784844  0.85657618    -0.39600
O1047       O  0.85654574  0.76779660  0.62454091    -0.39600
O1048       O  0.87556290  0.80588732  0.64160391    -0.37300
O1049       O  0.83956728  0.64489783  0.64975136    -0.38200
O1050       O  0.82505640  0.66831447  0.58930779    -0.34300
O1051       O  0.92411629  0.74904903  0.66881421    -0.35700
O1052       O  0.92077770  0.75662847  0.59167417    -0.40000
C1053       C  0.84928745  0.78690660  0.14645235    -0.13700
C1054       C  0.86634585  0.76635884  0.15329773     0.16700
C1055       C  0.88428837  0.76395421  0.11930416     0.03000
C1056       C  0.88475015  0.78209853  0.07937678    -0.12200
C1057       C  0.86767771  0.80276127  0.07219352    -0.03300
C1058       C  0.84981966  0.80507908  0.10660243     0.02200
C1059       C  0.86525956  0.74795070  0.19656841     0.09000
N1060       N  0.90213478  0.74326583  0.12467356     0.65400
H1061       H  0.89843032  0.77955302  0.05324535     0.18300
N1062       N  0.83185282  0.82539504  0.10133608     0.75900
H1063       H  0.83541388  0.78882110  0.17232716     0.09800
C1064       C  0.86611032  0.75947212  0.24344347     0.03500
C1065       C  0.86493545  0.74153376  0.28341405    -0.05200
C1066       C  0.86355598  0.71210770  0.27824804    -0.23600
C1067       C  0.86210534  0.70069333  0.23126947     0.12800
C1068       C  0.86306128  0.71866917  0.19098595    -0.12700
N1069       N  0.86916545  0.78914328  0.25121224     0.64400
H1070       H  0.86596747  0.75077810  0.31907701     0.12300
N1071       N  0.86024638  0.67103182  0.22369131     0.61100
H1072       H  0.86207964  0.70974605  0.15506773     0.08400
O1073       O  0.83556120  0.85078517  0.11199703    -0.40400
O1074       O  0.81168673  0.81749541  0.09126674    -0.39600
O1075       O  0.90909389  0.72962828  0.08842343    -0.39600
O1076       O  0.91224871  0.74012920  0.16467874    -0.37300
O1077       O  0.84151450  0.65867464  0.23257397    -0.38200
O1078       O  0.87590611  0.65811819  0.20126506    -0.34300
O1079       O  0.85922373  0.80114534  0.28607606    -0.35700
O1080       O  0.88378261  0.80272500  0.22691928    -0.40000
C1081       C  0.12136979  0.97623583  0.02356057    -0.13700
C1082       C  0.12878831  0.99911638  0.99572776     0.16700
C1083       C  0.13668736  0.99436248  0.94800909     0.03000
C1084       C  0.13686614  0.96682302  0.92959009    -0.12200
C1085       C  0.13040341  0.94384136  0.95831995    -0.03300
C1086       C  0.12199154  0.94875014  0.00545414     0.02200
C1087       C  0.12874736  0.02752290  0.01812966     0.09000
N1088       N  0.14582553  0.01677203  0.91887185     0.65400
H1089       H  0.14380148  0.96311115  0.89387524     0.18300
N1090       N  0.11400376  0.92609079  0.03532891     0.75900
H1091       H  0.11499816  0.97983719  0.05977917     0.09800
C1092       C  0.11743574  0.05078187  0.99671222     0.03500
C1093       C  0.12094060  0.07775347  0.01606084    -0.05200
C1094       C  0.13454946  0.08183397  0.05736186    -0.23600
C1095       C  0.14474905  0.05840460  0.08019664     0.12800
C1096       C  0.14164243  0.03154983  0.06048634    -0.12700
N1097       N  0.10242035  0.04739801  0.95574207     0.64400
H1098       H  0.11277802  0.09574263  0.99914111     0.12300
N1099       N  0.15973473  0.06168821  0.12098476     0.61100
H1100       H  0.15042817  0.01383338  0.07688906     0.08400
O1101       O  0.10048141  0.90782623  0.01833618    -0.40400
O1102       O  0.11881908  0.92563987  0.07977567    -0.39600
O1103       O  0.15891024  0.03504601  0.93727433    -0.39600
O1104       O  0.14313745  0.01640882  0.87363920    -0.37300
O1105       O  0.15787454  0.04541049  0.15676197    -0.38200
O1106       O  0.17705163  0.07758107  0.11804962    -0.34300
O1107       O  0.08999561  0.02575850  0.95174879    -0.35700
O1108       O  0.09987614  0.06719268  0.92580457    -0.40000
C1109       C  0.12498523  0.78147066  0.70075140    -0.13700
C1110       C  0.13137450  0.75322044  0.70737651     0.16700
C1111       C  0.13960857  0.74454367  0.75311199     0.03000
C1112       C  0.14149793  0.76436268  0.79050672    -0.12200
C1113       C  0.13478694  0.79261580  0.78416273    -0.03300
C1114       C  0.12645281  0.80106417  0.73842769     0.02200
C1115       C  0.13099161  0.73392244  0.66493101     0.09000
N1116       N  0.14545293  0.71566800  0.76272094     0.65400
H1117       H  0.14753235  0.75726721  0.82544829     0.18300
N1118       N  0.11968477  0.82948923  0.72918845     0.75900
H1119       H  0.11919744  0.78855117  0.66559328     0.09800
C1120       C  0.11134955  0.73116967  0.63504934     0.03500
C1121       C  0.11301729  0.71599784  0.59164526    -0.05200
C1122       C  0.13362174  0.70272999  0.57771496    -0.23600
C1123       C  0.15267938  0.70383669  0.60963334     0.12800
C1124       C  0.15132082  0.71989976  0.65193789    -0.12700
N1125       N  0.08972285  0.74382106  0.64791973     0.64400
H1126       H  0.09812276  0.71497003  0.56818053     0.12300
N1127       N  0.17381700  0.68961426  0.59910708     0.61100
H1128       H  0.16647696  0.72183661  0.67449536     0.08400
O1129       O  0.13470137  0.84861142  0.72735345    -0.40400
O1130       O  0.09924190  0.83488991  0.71684966    -0.39600
O1131       O  0.16170244  0.70977930  0.79130394    -0.39600
O1132       O  0.13303140  0.69603264  0.74656799    -0.37300
O1133       O  0.17437135  0.66307774  0.59855264    -0.38200
O1134       O  0.19243485  0.70322730  0.59767161    -0.34300
O1135       O  0.07654732  0.75340840  0.61556982    -0.35700
O1136       O  0.08285166  0.74339150  0.69112957    -0.40000
C1137       C  0.14064578  0.81382052  0.15911236    -0.13700
C1138       C  0.13148852  0.78637007  0.15850832     0.16700
C1139       C  0.12205023  0.77605394  0.11482701     0.03000
C1140       C  0.12198980  0.79313725  0.07358398    -0.12200
C1141       C  0.13251993  0.81974545  0.07319527    -0.03300
C1142       C  0.14180140  0.83020523  0.11676395     0.02200
C1143       C  0.13122526  0.76890729  0.20359417     0.09000
N1144       N  0.11377675  0.74767929  0.11065377     0.65400
H1145       H  0.11528622  0.78443367  0.04030183     0.18300
N1146       N  0.15228166  0.85736928  0.11884031     0.75900
H1147       H  0.14742182  0.82236365  0.19242829     0.09800
C1148       C  0.15109663  0.76473421  0.23238954     0.03500
C1149       C  0.14989228  0.74741702  0.27340398    -0.05200
C1150       C  0.12956603  0.73322695  0.28575248    -0.23600
C1151       C  0.10947435  0.73799927  0.25811775     0.12800
C1152       C  0.11054441  0.75593410  0.21778250    -0.12700
N1153       N  0.17285962  0.77678636  0.21958512     0.64400
H1154       H  0.16527987  0.74404651  0.29474816     0.12300
N1155       N  0.08771759  0.72590050  0.27142372     0.61100
H1156       H  0.09500974  0.75995387  0.19730710     0.08400
O1157       O  0.17277128  0.86040509  0.10478554    -0.40400
O1158       O  0.14296838  0.87656294  0.14346442    -0.39600
O1159       O  0.09626503  0.74242673  0.08520248    -0.39600
O1160       O  0.12554743  0.72749290  0.12709170    -0.37300
O1161       O  0.08163999  0.72515003  0.31512651    -0.38200
O1162       O  0.07322087  0.71958861  0.23923048    -0.34300
O1163       O  0.18541572  0.78770315  0.25171623    -0.35700
O1164       O  0.18106219  0.77275517  0.17803365    -0.40000
C1165       C  0.98149712  0.81764476  0.89753874    -0.13700
C1166       C  0.99129949  0.83977802  0.92404708     0.16700
C1167       C  0.97683849  0.86014014  0.94544261     0.03000
C1168       C  0.95294274  0.85835223  0.93843901    -0.12200
C1169       C  0.94317852  0.83617702  0.91193284    -0.03300
C1170       C  0.95764062  0.81560963  0.89114655     0.02200
C1171       C  0.01673245  0.84252568  0.92414110     0.09000
N1172       N  0.98601086  0.88227772  0.97513660     0.65400
H1173       H  0.94192250  0.87378889  0.95479397     0.18300
N1174       N  0.94865962  0.79362354  0.86094898     0.75900
H1175       H  0.99254730  0.80258807  0.87992151     0.09800
C1176       C  0.03109570  0.81990944  0.93776273     0.03500
C1177       C  0.05482567  0.82172529  0.92935601    -0.05200
C1178       C  0.06475503  0.84586144  0.90862544    -0.23600
C1179       C  0.05035582  0.86885497  0.89670410     0.12800
C1180       C  0.02659918  0.86692573  0.90458988    -0.12700
N1181       N  0.02190730  0.79517659  0.96057572     0.64400
H1182       H  0.06564964  0.80428363  0.94010598     0.12300
N1183       N  0.05926071  0.89377504  0.87450991     0.61100
H1184       H  0.01563435  0.88410859  0.89323641     0.08400
O1185       O  0.95769104  0.76947524  0.86182497    -0.40400
O1186       O  0.93423272  0.79935022  0.82827381    -0.39600
O1187       O  0.97630773  0.90602919  0.97625302    -0.39600
O1188       O  0.00241250  0.87737085  0.00388915    -0.37300
O1189       O  0.05481649  0.91754943  0.89248089    -0.38200
O1190       O  0.06832550  0.89238622  0.83319680    -0.34300
O1191       O  0.03073278  0.77137176  0.95251126    -0.35700
O1192       O  0.00623156  0.79729599  0.99187705    -0.40000
C1193       C  0.36926570  0.47029025  0.02907151    -0.13700
C1194       C  0.37753645  0.49172729  0.99916531     0.16700
C1195       C  0.38544550  0.48485725  0.95221149     0.03000
C1196       C  0.38337249  0.45696032  0.93557376    -0.12200
C1197       C  0.37414020  0.43564757  0.96494586    -0.03300
C1198       C  0.36746882  0.44261377  0.01269970     0.02200
C1199       C  0.37555808  0.52119757  0.01684042     0.09000
N1200       N  0.39534604  0.50581797  0.92102053     0.65400
H1201       H  0.38897927  0.45190091  0.89932861     0.18300
N1202       N  0.35763408  0.42224348  0.04452060     0.75900
H1203       H  0.36310866  0.47532304  0.06498089     0.09800
C1204       C  0.36236911  0.54158281  0.99190893     0.03500
C1205       C  0.36055777  0.56882803  0.01093051    -0.05200
C1206       C  0.37068155  0.57616043  0.05539849    -0.23600
C1207       C  0.38382337  0.55571058  0.08016831     0.12800
C1208       C  0.38605934  0.52856100  0.06079451    -0.12700
N1209       N  0.34976530  0.53474265  0.94873364     0.64400
H1210       H  0.35002357  0.58400318  0.99185345     0.12300
N1211       N  0.39526613  0.56217737  0.12457050     0.61100
H1212       H  0.39619021  0.51306948  0.08012457     0.08400
O1213       O  0.33614798  0.41844125  0.04469432    -0.40400
O1214       O  0.36989947  0.41107203  0.07690262    -0.39600
O1215       O  0.40733024  0.52553399  0.93828894    -0.39600
O1216       O  0.39365553  0.50348099  0.87574843    -0.37300
O1217       O  0.39145172  0.54754500  0.16172039    -0.38200
O1218       O  0.41114193  0.58026328  0.12524741    -0.34300
O1219       O  0.33858865  0.51204732  0.94595984    -0.35700
O1220       O  0.34740158  0.55286801  0.91577141    -0.40000
C1221       C  0.25997129  0.72558720  0.03453466    -0.13700
C1222       C  0.26134522  0.75490671  0.03222035     0.16700
C1223       C  0.28128731  0.76883542  0.04907587     0.03000
C1224       C  0.29992821  0.75266389  0.06554156    -0.12200
C1225       C  0.29870508  0.72318844  0.06676545    -0.03300
C1226       C  0.27837551  0.70958325  0.05114603     0.02200
C1227       C  0.24174927  0.76986057  0.01028525     0.09000
N1228       N  0.28284355  0.79904281  0.04993894     0.65400
H1229       H  0.31539162  0.76312506  0.07793066     0.18300
N1230       N  0.27662320  0.67955311  0.04844260     0.75900
H1231       H  0.24477067  0.71491835  0.02114970     0.09800
C1232       C  0.24401084  0.78669444  0.96845454     0.03500
C1233       C  0.22447151  0.80015724  0.94977784    -0.05200
C1234       C  0.20273194  0.79606813  0.97057460    -0.23600
C1235       C  0.20057813  0.77854572  0.01146475     0.12800
C1236       C  0.22009393  0.76602916  0.03117799    -0.12700
N1237       N  0.26571233  0.78996063  0.94424770     0.64400
H1238       H  0.22615894  0.81358423  0.91834715     0.12300
N1239       N  0.17903874  0.77463036  0.03543026     0.61100
H1240       H  0.21833799  0.75310239  0.06323301     0.08400
O1241       O  0.28913195  0.66612615  0.01919819    -0.40400
O1242       O  0.26002440  0.66715868  0.06862478    -0.39600
O1243       O  0.26540062  0.81382956  0.05963153    -0.39600
O1244       O  0.30211008  0.81097042  0.04525184    -0.37300
O1245       O  0.16408504  0.75865462  0.01704016    -0.38200
O1246       O  0.17715186  0.78171154  0.07909537    -0.34300
O1247       O  0.27901303  0.76919260  0.93909440    -0.35700
O1248       O  0.27060400  0.81287284  0.92364750    -0.40000
C1249       C  0.28038732  0.63350711  0.27276007    -0.13700
C1250       C  0.26101707  0.62198407  0.24986144     0.16700
C1251       C  0.26314468  0.61233483  0.20176652     0.03000
C1252       C  0.28414181  0.61594809  0.17713328    -0.12200
C1253       C  0.30337042  0.62856707  0.19938379    -0.03300
C1254       C  0.30134284  0.63689296  0.24832333     0.02200
C1255       C  0.23828087  0.62355772  0.27496297     0.09000
N1256       N  0.24426097  0.59875249  0.17759356     0.65400
H1257       H  0.28536816  0.60890687  0.14007506     0.18300
N1258       N  0.31995283  0.65002407  0.27346238     0.75900
H1259       H  0.27892253  0.64128358  0.30937897     0.09800
C1260       C  0.23497156  0.61278915  0.32204062     0.03500
C1261       C  0.21437596  0.61868290  0.34680223    -0.05200
C1262       C  0.19668139  0.63485042  0.32569708    -0.23600
C1263       C  0.19992534  0.64493336  0.27802405     0.12800
C1264       C  0.22046077  0.63906706  0.25335213    -0.12700
N1265       N  0.25221507  0.59568713  0.34500050     0.64400
H1266       H  0.21218886  0.61040787  0.38291191     0.12300
N1267       N  0.18322774  0.66251444  0.25485890     0.61100
H1268       H  0.22297862  0.64795517  0.21774005     0.08400
O1269       O  0.32818863  0.63837181  0.31060581    -0.40400
O1270       O  0.32463262  0.67546699  0.26501382    -0.39600
O1271       O  0.24171751  0.60135586  0.13254116    -0.39600
O1272       O  0.23127027  0.58213796  0.20036436    -0.37300
O1273       O  0.18034710  0.68740530  0.26945855    -0.38200
O1274       O  0.17481403  0.65521484  0.21475944    -0.34300
O1275       O  0.25548725  0.59739660  0.38996877    -0.35700
O1276       O  0.26287655  0.57717731  0.32119930    -0.40000
C1277       C  0.62590231  0.53377058  0.99600499    -0.13700
C1278       C  0.62830320  0.51180181  0.02940370     0.16700
C1279       C  0.63088588  0.51841640  0.07895633     0.03000
C1280       C  0.63183505  0.54677409  0.09353172    -0.12200
C1281       C  0.63015475  0.56879995  0.05983275    -0.03300
C1282       C  0.62651113  0.56198395  0.01058660     0.02200
C1283       C  0.63083199  0.48249824  0.01083080     0.09000
N1284       N  0.63296119  0.49664763  0.11468552     0.65400
H1285       H  0.63458712  0.55159456  0.13129406     0.18300
N1286       N  0.62378410  0.58343124  0.97465173     0.75900
H1287       H  0.62405639  0.52896314  0.95797946     0.09800
C1288       C  0.61428626  0.46985120  0.98022995     0.03500
C1289       C  0.61893797  0.44340521  0.95936499    -0.05200
C1290       C  0.63968512  0.42902072  0.96854524    -0.23600
C1291       C  0.65610460  0.44197025  0.99930421     0.12800
C1292       C  0.65146734  0.46821224  0.02003724    -0.12700
N1293       N  0.59259541  0.48329373  0.97066258     0.64400
H1294       H  0.60602273  0.43382407  0.93650615     0.12300
N1295       N  0.67800888  0.42936708  0.00876622     0.61100
H1296       H  0.66453403  0.47801554  0.04228745     0.08400
O1297       O  0.60768193  0.60114383  0.97815502    -0.40400
O1298       O  0.63636117  0.58341774  0.93754342    -0.39600
O1299       O  0.64652584  0.49961471  0.14995108    -0.39600
O1300       O  0.62022943  0.47518089  0.11280609    -0.37300
O1301       O  0.69357296  0.43039961  0.97709706    -0.38200
O1302       O  0.68298583  0.42145003  0.05099848    -0.34300
O1303       O  0.58331804  0.48113872  0.92959658    -0.35700
O1304       O  0.58177175  0.49546827  0.00417220    -0.40000
C1305       C  0.74165022  0.71403582  0.01328902    -0.13700
C1306       C  0.74278854  0.74334314  0.01576038     0.16700
C1307       C  0.72346786  0.75887599  0.03178242     0.03000
C1308       C  0.70347716  0.74439472  0.04562881    -0.12200
C1309       C  0.70268406  0.71492715  0.04442650    -0.03300
C1310       C  0.72185812  0.69966950  0.02690952     0.02200
C1311       C  0.76386498  0.75687909  0.99746882     0.09000
N1312       N  0.72404835  0.78903659  0.03527488     0.65400
H1313       H  0.68878712  0.75609005  0.05887808     0.18300
N1314       N  0.72116087  0.66973851  0.02022694     0.75900
H1315       H  0.75609420  0.70225001  0.99904823     0.09800
C1316       C  0.78580211  0.74975778  0.01598039     0.03500
C1317       C  0.80545477  0.76096673  0.99409749    -0.05200
C1318       C  0.80364605  0.77973302  0.95519195    -0.23600
C1319       C  0.78171052  0.78610027  0.93590497     0.12800
C1320       C  0.76208985  0.77465565  0.95733053    -0.12700
N1321       N  0.78837083  0.73219369  0.05796416     0.64400
H1322       H  0.82214413  0.75661839  0.00991807     0.12300
N1323       N  0.77906167  0.80429543  0.89493603     0.61100
H1324       H  0.74532960  0.77924733  0.94203595     0.08400
O1325       O  0.73803867  0.65477531  0.03312526    -0.40400
O1326       O  0.70545627  0.65886356  0.99486395    -0.39600
O1327       O  0.70613118  0.80327649  0.02693933    -0.39600
O1328       O  0.74181518  0.80138382  0.05070865    -0.37300
O1329       O  0.79116427  0.80066966  0.85764094    -0.38200
O1330       O  0.76384069  0.82322877  0.89511630    -0.34300
O1331       O  0.80555839  0.71609575  0.06192515    -0.35700
O1332       O  0.77475118  0.73464134  0.09318261    -0.40000
C1333       C  0.71835660  0.62890060  0.27036494    -0.13700
C1334       C  0.73980903  0.62602870  0.24769427     0.16700
C1335       C  0.74045527  0.62158949  0.19726943     0.03000
C1336       C  0.71977946  0.62137020  0.17060515    -0.12200
C1337       C  0.69832955  0.62596390  0.19295478    -0.03300
C1338       C  0.69772386  0.62877954  0.24392770     0.02200
C1339       C  0.76107959  0.62794036  0.27795706     0.09000
N1340       N  0.76192335  0.61886543  0.17219258     0.65400
H1341       H  0.72067860  0.61932755  0.13174601     0.18300
N1342       N  0.67639953  0.63130513  0.26967093     0.75900
H1343       H  0.71767401  0.63130044  0.30919024     0.09800
C1344       C  0.76506043  0.65151192  0.30792775     0.03500
C1345       C  0.78367773  0.65123837  0.34022303    -0.05200
C1346       C  0.79901498  0.62840220  0.34279374    -0.23600
C1347       C  0.79555435  0.60519530  0.31173062     0.12800
C1348       C  0.77660218  0.60519437  0.27975994    -0.12700
N1349       N  0.75086046  0.67628189  0.30501969     0.64400
H1350       H  0.78682609  0.66962737  0.36191258     0.12300
N1351       N  0.81042186  0.58108338  0.31343595     0.61100
H1352       H  0.77350635  0.58698816  0.25742476     0.08400
O1353       O  0.67464745  0.64848301  0.30421100    -0.40400
O1354       O  0.66052782  0.61365911  0.26267184    -0.39600
O1355       O  0.76424860  0.60044197  0.13977389    -0.39600
O1356       O  0.77781461  0.63650417  0.17904607    -0.37300
O1357       O  0.81621752  0.57058065  0.35352679    -0.38200
O1358       O  0.81577605  0.56843853  0.27500034    -0.34300
O1359       O  0.74723025  0.69096569  0.34220378    -0.35700
O1360       O  0.74406419  0.68529416  0.26454451    -0.40000
C1361       C  0.52493877  0.64738759  0.12835366    -0.13700
C1362       C  0.51360952  0.66816490  0.10123093     0.16700
C1363       C  0.52688157  0.68901951  0.07767153     0.03000
C1364       C  0.55097992  0.68876299  0.08263760    -0.12200
C1365       C  0.56232564  0.66781207  0.10950619    -0.03300
C1366       C  0.54896839  0.64689373  0.13264499     0.02200
C1367       C  0.48792698  0.66893033  0.10179858     0.09000
N1368       N  0.51630630  0.71012089  0.04772407     0.65400
H1369       H  0.56099412  0.70457705  0.06399529     0.18300
N1370       N  0.55932301  0.62566898  0.16236008     0.75900
H1371       H  0.51494638  0.63184917  0.14773497     0.09800
C1372       C  0.47445594  0.64485152  0.09149697     0.03500
C1373       C  0.45048155  0.64597716  0.09791734    -0.05200
C1374       C  0.43941996  0.67071900  0.11316039    -0.23600
C1375       C  0.45291773  0.69482955  0.12294815     0.12800
C1376       C  0.47687229  0.69360469  0.11724227    -0.12700
N1377       N  0.48469127  0.61937558  0.07351530     0.64400
H1378       H  0.44030088  0.62756994  0.08942944     0.12300
N1379       N  0.44284194  0.72033103  0.14082798     0.61100
H1380       H  0.48706276  0.71185923  0.12664609     0.08400
O1381       O  0.55392225  0.60018643  0.15657795    -0.40400
O1382       O  0.57110261  0.63266937  0.19873625    -0.39600
O1383       O  0.52481998  0.73449765  0.04536147    -0.39600
O1384       O  0.49979278  0.70380435  0.02013449    -0.37300
O1385       O  0.44867230  0.74369227  0.12300356    -0.38200
O1386       O  0.43083654  0.71991834  0.17876797    -0.34300
O1387       O  0.47628866  0.59578521  0.08470513    -0.35700
O1388       O  0.50070563  0.62039382  0.04282289    -0.40000
C1389       C  0.62303474  0.01761487  0.45201614    -0.13700
C1390       C  0.62513575  0.01288343  0.50182712     0.16700
C1391       C  0.62908445  0.03588026  0.53275110     0.03000
C1392       C  0.63209518  0.06283423  0.51321999    -0.12200
C1393       C  0.63120208  0.06766810  0.46304006    -0.03300
C1394       C  0.62601593  0.04467041  0.43239622     0.02200
C1395       C  0.62776464  0.98371300  0.52019136     0.09000
N1396       N  0.63087977  0.03194155  0.58399052     0.65400
H1397       H  0.63558306  0.08005193  0.53772813     0.18300
N1398       N  0.62499504  0.04798627  0.38117195     0.75900
H1399       H  0.62036861  0.99994862  0.42796997     0.09800
C1400       C  0.60892274  0.96561485  0.52786611     0.03500
C1401       C  0.61266355  0.93843065  0.54655884    -0.05200
C1402       C  0.63501521  0.92895081  0.55746497    -0.23600
C1403       C  0.65383730  0.94718543  0.54916322     0.12800
C1404       C  0.65001476  0.97415754  0.53057621    -0.12700
N1405       N  0.58600519  0.97455044  0.51687436     0.64400
H1406       H  0.59811095  0.92456899  0.55195760     0.12300
N1407       N  0.67693218  0.93892560  0.56056183     0.61100
H1408       H  0.66455567  0.98800785  0.52481920     0.08400
O1409       O  0.60577951  0.04755475  0.35993936    -0.40400
O1410       O  0.64327437  0.04709712  0.35668758    -0.39600
O1411       O  0.64670044  0.04390168  0.60750993    -0.39600
O1412       O  0.61591480  0.01778219  0.60627981    -0.37300
O1413       O  0.69260116  0.94136115  0.52934020    -0.38200
O1414       O  0.68215344  0.93210039  0.60323651    -0.34300
O1415       O  0.57412733  0.96110751  0.48651287    -0.35700
O1416       O  0.57703460  0.99465033  0.53988703    -0.40000
C1417       C  0.71183365  0.73876594  0.48990410    -0.13700
C1418       C  0.73311327  0.74347882  0.51244962     0.16700
C1419       C  0.73385602  0.75793362  0.55707399     0.03000
C1420       C  0.71342246  0.76874351  0.57648112    -0.12200
C1421       C  0.69233896  0.76482022  0.55296494    -0.03300
C1422       C  0.69139503  0.74898935  0.51003772     0.02200
C1423       C  0.75439989  0.73412062  0.48786624     0.09000
N1424       N  0.75518703  0.76258543  0.58215342     0.65400
H1425       H  0.71413012  0.78168966  0.60867123     0.18300
N1426       N  0.67004059  0.74515279  0.48470349     0.75900
H1427       H  0.71122347  0.72768944  0.45573017     0.09800
C1428       C  0.75764330  0.70573616  0.47467353     0.03500
C1429       C  0.77870488  0.69754648  0.45503949    -0.05200
C1430       C  0.79689053  0.71670081  0.44943948    -0.23600
C1431       C  0.79310020  0.74537441  0.45888733     0.12800
C1432       C  0.77181133  0.75385796  0.47787678    -0.12700
N1433       N  0.74066644  0.68454763  0.48466106     0.64400
H1434       H  0.78169040  0.67534788  0.44877829     0.12300
N1435       N  0.81117403  0.76555463  0.45323624     0.61100
H1436       H  0.76909617  0.77584681  0.48651971     0.08400
O1437       O  0.66958595  0.74554419  0.43917475    -0.40400
O1438       O  0.65169435  0.74040296  0.50763687    -0.39600
O1439       O  0.75880353  0.78564677  0.60340470    -0.39600
O1440       O  0.76976646  0.74302016  0.58615113    -0.37300
O1441       O  0.82115118  0.76818502  0.41305323    -0.38200
O1442       O  0.81580703  0.78245819  0.48698481    -0.34300
O1443       O  0.73747695  0.66472407  0.45509721    -0.35700
O1444       O  0.73110207  0.68343422  0.52550719    -0.40000
C1445       C  0.76839243  0.88362054  0.80256378    -0.13700
C1446       C  0.76682033  0.86523182  0.76292442     0.16700
C1447       C  0.78608226  0.84838118  0.75110626     0.03000
C1448       C  0.80631400  0.85067856  0.77847359    -0.12200
C1449       C  0.80778379  0.86854812  0.81885625    -0.03300
C1450       C  0.78851529  0.88539092  0.83072428     0.02200
C1451       C  0.74550827  0.86516350  0.73261382     0.09000
N1452       N  0.78513338  0.82792633  0.71292181     0.65400
H1453       H  0.82063422  0.83707210  0.76956346     0.18300
N1454       N  0.78915694  0.90484538  0.87027993     0.75900
H1455       H  0.75398964  0.89716117  0.81111611     0.09800
C1456       C  0.72329190  0.86226921  0.75288938     0.03500
C1457       C  0.70383716  0.86312292  0.72273372    -0.05200
C1458       C  0.70599788  0.86541931  0.67239758    -0.23600
C1459       C  0.72815450  0.86850426  0.65211514     0.12800
C1460       C  0.74752721  0.86877970  0.68242535    -0.12700
N1461       N  0.72021952  0.85656833  0.80334746     0.64400
H1462       H  0.68700012  0.85999832  0.73842110     0.12300
N1463       N  0.73132047  0.87172988  0.60102277     0.61100
H1464       H  0.76434554  0.87186914  0.66664498     0.08400
O1465       O  0.77205628  0.90707786  0.89806171    -0.40400
O1466       O  0.80534919  0.92242141  0.87355994    -0.39600
O1467       O  0.80265841  0.82327829  0.68724017    -0.39600
O1468       O  0.76774391  0.81226322  0.70829074    -0.37300
O1469       O  0.71916482  0.88901035  0.57757965    -0.38200
O1470       O  0.74772681  0.85935522  0.58006195    -0.34300
O1471       O  0.70364038  0.86749953  0.82598751    -0.35700
O1472       O  0.73203917  0.83767319  0.82360951    -0.40000
C1473       C  0.64206732  0.77118303  0.81793290    -0.13700
C1474       C  0.63357867  0.74376124  0.81218177     0.16700
C1475       C  0.62382752  0.73583384  0.76767040     0.03000
C1476       C  0.62317433  0.75530609  0.72966597    -0.12200
C1477       C  0.63208825  0.78275729  0.73464825    -0.03300
C1478       C  0.64107200  0.79092486  0.78013121     0.02200
C1479       C  0.63424994  0.72410969  0.85382295     0.09000
N1480       N  0.61511091  0.70792042  0.75999394     0.65400
H1481       H  0.61617867  0.74847936  0.69539575     0.18300
N1482       N  0.64837040  0.81922119  0.78945270     0.75900
H1483       H  0.64890896  0.77749756  0.85265293     0.09800
C1484       C  0.65532820  0.71473481  0.87322281     0.03500
C1485       C  0.65538203  0.69775432  0.91459264    -0.05200
C1486       C  0.63476701  0.68994881  0.93754447    -0.23600
C1487       C  0.61358997  0.69875527  0.91719926     0.12800
C1488       C  0.61357823  0.71575440  0.87567277    -0.12700
N1489       N  0.67681340  0.72285069  0.85198564     0.64400
H1490       H  0.67177269  0.69169320  0.93007307     0.12300
N1491       N  0.59204450  0.69112397  0.93871722     0.61100
H1492       H  0.59735832  0.72287569  0.86074270     0.08400
O1493       O  0.66630030  0.82358570  0.81407997    -0.40400
O1494       O  0.63469022  0.83938154  0.78180271    -0.39600
O1495       O  0.59693245  0.70425137  0.73581955    -0.39600
O1496       O  0.62654493  0.68676848  0.77365204    -0.37300
O1497       O  0.57661219  0.70945467  0.94499570    -0.38200
O1498       O  0.58783909  0.66574392  0.94872186    -0.34300
O1499       O  0.69293368  0.73194057  0.87826013    -0.35700
O1500       O  0.68015677  0.71962930  0.80731155    -0.40000
C1501       C  0.63150967  0.77210625  0.25682528    -0.13700
C1502       C  0.63372716  0.76163005  0.30380851     0.16700
C1503       C  0.63622677  0.73234468  0.31102788     0.03000
C1504       C  0.63571815  0.71412068  0.27120753    -0.12200
C1505       C  0.63277772  0.72445996  0.22420169    -0.03300
C1506       C  0.63082723  0.75389664  0.21701444     0.02200
C1507       C  0.63278858  0.78147536  0.34495349     0.09000
N1508       N  0.63988051  0.72078294  0.35823718     0.65400
H1509       H  0.63772665  0.69172973  0.27703519     0.18300
N1510       N  0.62719400  0.76559877  0.16988298     0.75900
H1511       H  0.62957661  0.79452784  0.25122307     0.09800
C1512       C  0.65212622  0.79716173  0.35935206     0.03500
C1513       C  0.65132906  0.81294529  0.40212729    -0.05200
C1514       C  0.63149347  0.81303563  0.43111650    -0.23600
C1515       C  0.61143207  0.79930946  0.41416262     0.12800
C1516       C  0.61224561  0.78410647  0.37084436    -0.12700
N1517       N  0.67306347  0.79581855  0.33249251     0.64400
H1518       H  0.66688406  0.82310767  0.41482447     0.12300
N1519       N  0.59017351  0.80023020  0.44038993     0.61100
H1520       H  0.59709222  0.77283354  0.35879873     0.08400
O1521       O  0.63902203  0.78632219  0.15600684    -0.40400
O1522       O  0.61037879  0.75753518  0.14454394    -0.39600
O1523       O  0.62550445  0.72521495  0.39146480    -0.39600
O1524       O  0.65572505  0.70301865  0.36491940    -0.37300
O1525       O  0.58895055  0.78994239  0.48228393    -0.38200
O1526       O  0.57177328  0.80592427  0.41817868    -0.34300
O1527       O  0.68662344  0.77533784  0.33812509    -0.35700
O1528       O  0.67834390  0.81553710  0.30412031    -0.40000
C1529       C  0.38622761  0.97354820  0.50154780    -0.13700
C1530       C  0.38141317  0.99590880  0.53298395     0.16700
C1531       C  0.37626697  0.98987309  0.58189178     0.03000
C1532       C  0.37486367  0.96169001  0.59731979    -0.12200
C1533       C  0.37867164  0.93925650  0.56527976    -0.03300
C1534       C  0.38526727  0.94547329  0.51719555     0.02200
C1535       C  0.37878040  0.02482739  0.51247356     0.09000
N1536       N  0.37193614  0.01204762  0.61597054     0.65400
H1537       H  0.36998635  0.95729082  0.63425981     0.18300
N1538       N  0.39078506  0.92354775  0.48358380     0.75900
H1539       H  0.39020945  0.97792537  0.46411424     0.09800
C1540       C  0.39620468  0.03823842  0.48517311     0.03500
C1541       C  0.39160877  0.06441387  0.46303394    -0.05200
C1542       C  0.37009984  0.07779743  0.46783964    -0.23600
C1543       C  0.35272637  0.06396316  0.49493911     0.12800
C1544       C  0.35732816  0.03801417  0.51686590    -0.12700
N1545       N  0.41874299  0.02604098  0.48064472     0.64400
H1546       H  0.40519375  0.07474895  0.44310441     0.12300
N1547       N  0.32998208  0.07532221  0.49951164     0.61100
H1548       H  0.34364662  0.02752765  0.53632992     0.08400
O1549       O  0.40565345  0.90521000  0.49437538    -0.40400
O1550       O  0.38242798  0.92395763  0.44150165    -0.39600
O1551       O  0.35718010  0.00879746  0.64890001    -0.39600
O1552       O  0.38388322  0.03420304  0.61531231    -0.37300
O1553       O  0.31748521  0.07802460  0.46249884    -0.38200
O1554       O  0.32100238  0.07773817  0.54076460    -0.34300
O1555       O  0.43016239  0.02937194  0.44233687    -0.35700
O1556       O  0.42814486  0.01407952  0.51628537    -0.40000
C1557       C  0.35047173  0.74751906  0.78273622    -0.13700
C1558       C  0.36470319  0.75324692  0.82250473     0.16700
C1559       C  0.38002744  0.77629266  0.81994073     0.03000
C1560       C  0.38075320  0.79286510  0.77792524    -0.12200
C1561       C  0.36633940  0.78738171  0.73818159    -0.03300
C1562       C  0.35102480  0.76420846  0.74096653     0.02200
C1563       C  0.36367701  0.73449751  0.86574969     0.09000
N1564       N  0.39457502  0.78360218  0.85996067     0.65400
H1565       H  0.39255655  0.81045269  0.77667834     0.18300
N1566       N  0.33567414  0.75732011  0.70224845     0.75900
H1567       H  0.33890703  0.72968333  0.78395071     0.09800
C1568       C  0.34269593  0.72876705  0.88962637     0.03500
C1569       C  0.34265085  0.71107758  0.93020232    -0.05200
C1570       C  0.36312655  0.69958385  0.94882170    -0.23600
C1571       C  0.38397088  0.70426870  0.92384383     0.12800
C1572       C  0.38395181  0.72157331  0.88257181    -0.12700
N1573       N  0.32150596  0.74185266  0.87495155     0.64400
H1574       H  0.32664423  0.70804085  0.94951101     0.12300
N1575       N  0.40511252  0.69135024  0.93934789     0.61100
H1576       H  0.39989534  0.72498138  0.86327608     0.08400
O1577       O  0.31426935  0.75702604  0.70985623    -0.40400
O1578       O  0.34345387  0.74537945  0.66499971    -0.39600
O1579       O  0.41504682  0.79134416  0.85267074    -0.39600
O1580       O  0.38646419  0.78478164  0.90216492    -0.37300
O1581       O  0.40515443  0.66643896  0.95515444    -0.38200
O1582       O  0.42407665  0.70364866  0.93258782    -0.34300
O1583       O  0.30292440  0.72815672  0.87644009    -0.35700
O1584       O  0.32087441  0.76780417  0.86536693    -0.40000
C1585       C  0.37893677  0.73360885  0.32718492    -0.13700
C1586       C  0.37702676  0.76270584  0.31941630     0.16700
C1587       C  0.37473467  0.77278297  0.27163979     0.03000
C1588       C  0.37299968  0.75343521  0.23345034    -0.12200
C1589       C  0.37450108  0.72415864  0.24100291    -0.03300
C1590       C  0.37811547  0.71429716  0.28874116     0.02200
C1591       C  0.37646321  0.78187004  0.36207475     0.09000
N1592       N  0.37437204  0.80243973  0.26116483     0.65400
H1593       H  0.37098677  0.76148455  0.19712076     0.18300
N1594       N  0.38057490  0.68494780  0.29940338     0.75900
H1595       H  0.38097893  0.72579635  0.36368472     0.09800
C1596       C  0.35736851  0.79945265  0.37197876     0.03500
C1597       C  0.35760775  0.81654862  0.41340175    -0.05200
C1598       C  0.37607480  0.81603223  0.44634050    -0.23600
C1599       C  0.39566596  0.79949639  0.43484125     0.12800
C1600       C  0.39545727  0.78246355  0.39336171    -0.12700
N1601       N  0.33711494  0.79914991  0.34205896     0.64400
H1602       H  0.34236652  0.82875587  0.42170592     0.12300
N1603       N  0.41581893  0.79950109  0.46488209     0.61100
H1604       H  0.41036764  0.76959892  0.38523724     0.08400
O1605       O  0.39800203  0.67183647  0.28418574    -0.40400
O1606       O  0.36889421  0.67428011  0.33312638    -0.39600
O1607       O  0.38698639  0.81919633  0.28459605    -0.39600
O1608       O  0.36317121  0.81162419  0.22538034    -0.37300
O1609       O  0.42610713  0.77672516  0.47412071    -0.38200
O1610       O  0.42496628  0.82247786  0.47720894    -0.34300
O1611       O  0.32925079  0.77623569  0.32604865    -0.35700
O1612       O  0.32559210  0.82139708  0.33598623    -0.40000
C1613       C  0.47751299  0.81054431  0.62857482    -0.13700
C1614       C  0.49006283  0.83563947  0.62836128     0.16700
C1615       C  0.47832787  0.86161617  0.62834135     0.03000
C1616       C  0.45419886  0.86188418  0.62771038    -0.12200
C1617       C  0.44142391  0.83675831  0.62808185    -0.03300
C1618       C  0.45342931  0.81081610  0.62912826     0.02200
C1619       C  0.51536551  0.83437544  0.62400453     0.09000
N1620       N  0.49063719  0.88780938  0.62880250     0.65400
H1621       H  0.44540459  0.88197049  0.62719551     0.18300
N1622       N  0.44154554  0.78453152  0.63105194     0.75900
H1623       H  0.48651016  0.79057586  0.62817491     0.09800
C1624       C  0.52947176  0.82905743  0.66429830     0.03500
C1625       C  0.55340260  0.82989005  0.65914467    -0.05200
C1626       C  0.56359709  0.83524364  0.61410169    -0.23600
C1627       C  0.54945097  0.84096704  0.57361834     0.12800
C1628       C  0.52542746  0.84032380  0.57920125    -0.12700
N1629       N  0.51975289  0.82310095  0.71065251     0.64400
H1630       H  0.56411655  0.82538948  0.69026132     0.12300
N1631       N  0.55900153  0.84860963  0.52750441     0.61100
H1632       H  0.51441563  0.84511302  0.54869706     0.08400
O1633       O  0.43338225  0.77595534  0.67059667    -0.40400
O1634       O  0.44183040  0.76832329  0.59500546    -0.39600
O1635       O  0.48338048  0.90842914  0.60441061    -0.39600
O1636       O  0.50752587  0.89124766  0.65689180    -0.37300
O1637       O  0.54781526  0.84388978  0.48926007    -0.38200
O1638       O  0.57699110  0.86340550  0.52513415    -0.34300
O1639       O  0.50875352  0.80056099  0.71723984    -0.35700
O1640       O  0.52498030  0.83817882  0.74649685    -0.40000
C1641       C  0.26299539  0.79550865  0.51604632    -0.13700
C1642       C  0.26210805  0.76618058  0.51854000     0.16700
C1643       C  0.28158856  0.75089871  0.53436929     0.03000
C1644       C  0.30145940  0.76558332  0.54821197    -0.12200
C1645       C  0.30206993  0.79507507  0.54692717    -0.03300
C1646       C  0.28271229  0.81011329  0.52950043     0.02200
C1647       C  0.24108149  0.75234843  0.50062428     0.09000
N1648       N  0.28131694  0.72074151  0.53753185     0.65400
H1649       H  0.31622652  0.75397117  0.56138241     0.18300
N1650       N  0.28309344  0.84004249  0.52277671     0.75900
H1651       H  0.24841572  0.80712915  0.50193258     0.09800
C1652       C  0.21919638  0.75950351  0.51909486     0.03500
C1653       C  0.19953236  0.74830063  0.49728687    -0.05200
C1654       C  0.20125354  0.72942846  0.45855185    -0.23600
C1655       C  0.22317265  0.72279730  0.43939668     0.12800
C1656       C  0.24281881  0.73434536  0.46078298    -0.12700
N1657       N  0.21669239  0.77719873  0.56089108     0.64400
H1658       H  0.18287780  0.75282689  0.51297151     0.12300
N1659       N  0.22577264  0.70469737  0.39817958     0.61100
H1660       H  0.25956464  0.72980291  0.44554348     0.08400
O1661       O  0.26638457  0.85482911  0.53704032    -0.40400
O1662       O  0.29817759  0.85104299  0.49601946    -0.39600
O1663       O  0.29906792  0.70674649  0.52689481    -0.39600
O1664       O  0.26403886  0.70813677  0.55460362    -0.37300
O1665       O  0.21286490  0.70766342  0.36182483    -0.38200
O1666       O  0.24237835  0.68760257  0.39605263    -0.34300
O1667       O  0.19961817  0.79349290  0.56449542    -0.35700
O1668       O  0.23027580  0.77472992  0.59625858    -0.40000
C1669       C  0.27625803  0.86631238  0.74741545    -0.13700
C1670       C  0.26275276  0.89034700  0.74027958     0.16700
C1671       C  0.26958787  0.91038295  0.70519535     0.03000
C1672       C  0.28998825  0.90578730  0.67859281    -0.12200
C1673       C  0.30373419  0.88187731  0.68656512    -0.03300
C1674       C  0.29625121  0.86150088  0.72042628     0.02200
C1675       C  0.24100061  0.89259836  0.76843480     0.09000
N1676       N  0.25646554  0.93561578  0.69692024     0.65400
H1677       H  0.29555287  0.92138426  0.65261500     0.18300
N1678       N  0.30784536  0.83496205  0.72555585     0.75900
H1679       H  0.27059613  0.85049114  0.77294390     0.09800
C1680       C  0.21934393  0.88843768  0.74666964     0.03500
C1681       C  0.19942941  0.88745739  0.77537139    -0.05200
C1682       C  0.20056025  0.89024744  0.82602811    -0.23600
C1683       C  0.22226727  0.89587080  0.84728916     0.12800
C1684       C  0.24215115  0.89662892  0.81852893    -0.12700
N1685       N  0.21747604  0.88337812  0.69589211     0.64400
H1686       H  0.18310495  0.88314976  0.75797344     0.12300
N1687       N  0.22465556  0.89979150  0.89820776     0.61100
H1688       H  0.25872440  0.89994608  0.83556413     0.08400
O1689       O  0.31281042  0.82077199  0.68850292    -0.40400
O1690       O  0.30962103  0.82360003  0.76659509    -0.39600
O1691       O  0.24649734  0.94790746  0.73144982    -0.39600
O1692       O  0.25646857  0.94709685  0.65581178    -0.37300
O1693       O  0.23553983  0.88193357  0.92306042    -0.38200
O1694       O  0.21894301  0.92294568  0.91696300    -0.34300
O1695       O  0.22595508  0.86131491  0.67786741    -0.35700
O1696       O  0.20531295  0.89937861  0.66994515    -0.40000
loop_ 
_geom_bond_atom_site_label_1 
_geom_bond_atom_site_label_2 
_geom_bond_distance 
_geom_bond_site_symmetry_2 
_ccdc_geom_bond_type 
O1          Cr19   1.974       .  S
O1            C9   1.260       .  A
O2          Cr19   2.027       .  S
O2            C3   1.270       .  A
C3            O4   1.257       .  A
C3         C1561   1.494       .  S
O4          Cr20   1.971       .  S
O5          Cr20   2.019       .  S
O5            C6   1.267       .  A
C6            O7   1.252       .  A
C6         C1645   1.473       .  S
O7          Cr21   1.949       .  S
O8          Cr21   2.026       .  S
O8            C9   1.269       .  A
C9         C1673   1.490       .  S
O10         Cr19   2.036       .  S
O10          C18   1.273       .  A
O11         Cr19   1.972       .  S
O11          C12   1.263       .  A
C12          O13   1.269       .  A
C12        C1617   1.488       .  S
O13         Cr20   2.014       .  S
O14         Cr20   1.969       .  S
O14          C15   1.258       .  A
C15          O16   1.271       .  A
C15        C1598   1.497       .  S
O16         Cr21   2.029       .  S
O17         Cr21   1.966       .  S
O17          C18   1.258       .  A
C18        C1533   1.493       .  S
Cr19         O22   1.767       .  S
Cr20         O22   1.767       .  S
Cr21         O22   1.763       .  S
O23         Cr41   1.998       .  S
O23          C31   1.264       .  A
O24         Cr41   2.007       .  S
O24          C25   1.267       .  A
C25          O26   1.263       .  A
C25        C1626   1.475       .  S
O26         Cr42   1.978       .  S
O27         Cr42   1.989       .  S
O27          C28   1.261       .  A
C28          O29   1.265       .  A
C28        C1514   1.475       .  S
O29         Cr43   1.995       .  S
O30         Cr43   1.993       .  S
O30          C31   1.263       .  A
C31        C1402   1.486       .  S
O32         Cr41   2.008       .  S
O32          C40   1.266       .  A
O33         Cr41   1.997       .  S
O33          C34   1.262       .  A
C34          O35   1.261       .  A
C34        C1477   1.495       .  S
O35         Cr42   1.995       .  S
O36         Cr42   1.992       .  S
O36          C37   1.264       .  A
C37          O38   1.260       .  A
C37        C1421   1.458       .  S
O38         Cr43   1.979       .  S
O39         Cr43   1.975       .  S
O39          C40   1.259       .  A
C40        C1458   1.483       .  S
Cr41         O44   1.775       .  S
Cr42         O44   1.771       .  S
Cr43         O44   1.775       .  S
O45         Cr63   1.977       .  S
O45          C53   1.259       .  A
O46         Cr63   2.027       .  S
O46          C47   1.271       .  A
C47          O48   1.256       .  A
C47        C1505   1.482       .  S
O48         Cr64   1.960       .  S
O49         Cr64   2.026       .  S
O49          C50   1.269       .  A
C50          O51   1.254       .  A
C50        C1309   1.471       .  S
O51         Cr65   1.951       .  S
O52         Cr65   2.024       .  S
O52          C53   1.268       .  A
C53        C1337   1.497       .  S
O54         Cr63   2.039       .  S
O54          C62   1.274       .  A
O55         Cr63   1.974       .  S
O55          C56   1.261       .  A
C56          O57   1.270       .  A
C56        C1365   1.490       .  S
O57         Cr64   2.020       .  S
O58         Cr64   1.968       .  S
O58          C59   1.257   1_554  A
C59          O60   1.269   1_556  A
C59        C1486   1.485       .  S
O60         Cr65   2.024       .  S
O61         Cr65   1.959       .  S
O61          C62   1.258       .  A
C62        C1281   1.492       .  S
Cr63         O66   1.764       .  S
Cr64         O66   1.769       .  S
Cr65         O66   1.762       .  S
O67         Cr85   2.034       .  S
O67          C75   1.274       .  A
O68         Cr85   1.978       .  S
O68          C69   1.263       .  A
C69          O70   1.268       .  A
C69        C1374   1.487       .  S
O70         Cr86   2.009       .  S
O71         Cr86   1.981       .  S
O71          C72   1.260   1_554  A
C72          O73   1.266   1_556  A
C72        C1570   1.486       .  S
O73         Cr87   2.016       .  S
O74         Cr87   1.961       .  S
O74          C75   1.259       .  A
C75        C1206   1.491       .  S
O76         Cr85   1.989       .  S
O76          C84   1.260       .  A
O77         Cr85   2.026       .  S
O77          C78   1.269       .  A
C78          O79   1.260       .  A
C78        C1589   1.497       .  S
O79         Cr86   1.970       .  S
O80         Cr86   2.017       .  S
O80          C81   1.268       .  A
C81          O82   1.255       .  A
C81        C1225   1.471       .  S
O82         Cr87   1.954       .  S
O83         Cr87   2.012       .  S
O83          C84   1.265       .  A
C84        C1253   1.500       .  S
Cr85         O88   1.769       .  S
Cr86         O88   1.769       .  S
Cr87         O88   1.765       .  S
O89        Cr107   1.978       .  S
O89          C97   1.263       .  A
O90        Cr107   2.027       .  S
O90          C91   1.270       .  A
C91          O92   1.258       .  A
C91        C1113   1.493       .  S
O92        Cr108   1.967       .  S
O93        Cr108   2.002       .  S
O93          C94   1.264       .  A
C94          O95   1.256       .  A
C94        C1234   1.468       .  S
O95        Cr109   1.962       .  S
O96        Cr109   2.027       .  S
O96          C97   1.272       .  A
C97        C1682   1.499       .  S
O98        Cr107   2.023       .  S
O98         C106   1.269       .  A
O99        Cr107   1.979       .  S
O99         C100   1.261       .  A
C100        O101   1.266       .  A
C100       C1178   1.486       .  S
O101       Cr108   2.004       .  S
O102       Cr108   1.968       .  S
O102        C103   1.258   1_556  A
C103        O104   1.270       .  A
C103       C1141   1.490       .  S
O104       Cr109   2.037   1_554  S
O105       Cr109   1.963       .  S
O105        C106   1.257       .  A
C106       C1085   1.480       .  S
Cr107       O110   1.767       .  S
Cr108       O110   1.761       .  S
Cr109       O110   1.764       .  S
O111       Cr129   2.031       .  S
O111        C119   1.271       .  A
O112       Cr129   1.971       .  S
O112        C113   1.260       .  A
C113        O114   1.269       .  A
C113       C1169   1.475       .  S
O114       Cr130   2.015       .  S
O115       Cr130   1.964       .  S
O115        C116   1.257   1_556  A
C116        O117   1.267       .  A
C116       C1057   1.491       .  S
O117       Cr131   2.025   1_554  S
O118       Cr131   1.969       .  S
O118        C119   1.259       .  A
C119       C1010   1.480       .  S
O120       Cr129   1.969       .  S
O120        C128   1.259       .  A
O121       Cr129   2.028       .  S
O121        C122   1.270       .  A
C122        O123   1.255       .  A
C122       C1029   1.479       .  S
O123       Cr130   1.955       .  S
O124       Cr130   2.020       .  S
O124        C125   1.269       .  A
C125        O126   1.255       .  A
C125       C1318   1.472       .  S
O126       Cr131   1.950       .  S
O127       Cr131   2.020       .  S
O127        C128   1.269       .  A
C128       C1449   1.491       .  S
Cr129       O132   1.767       .  S
Cr130       O132   1.763       .  S
Cr131       O132   1.763       .  S
O133       Cr151   2.019       .  S
O133        C141   1.270       .  A
O134       Cr151   2.001       .  S
O134        C135   1.259       .  A
C135        O136   1.255       .  A
C135       C1066   1.490       .  S
O136       Cr152   1.972       .  S
O137       Cr152   2.006       .  S
O137        C138   1.263       .  A
C138        O139   1.257       .  A
C138       C1430   1.470       .  S
O139       Cr153   1.973       .  S
O140       Cr153   1.974       .  S
O140        C141   1.261       .  A
C141       C1346   1.489       .  S
O142       Cr151   1.999       .  S
O142        C150   1.262       .  A
O143       Cr151   2.018       .  S
O143        C144   1.273       .  A
C144        O145   1.265       .  A
C144        C973   1.484       .  S
O145       Cr152   1.976       .  S
O146       Cr152   1.986       .  S
O146        C147   1.262       .  A
C147        O148   1.266       .  A
C147       C1038   1.473       .  S
O148       Cr153   1.994       .  S
O149       Cr153   1.986       .  S
O149        C150   1.258       .  A
C150        C954   1.489       .  S
Cr151       O154   1.779       .  S
Cr152       O154   1.776       .  S
Cr153       O154   1.775       .  S
O155       Cr173   2.039       .  S
O155        C163   1.275       .  A
O156       Cr173   1.969       .  S
O156        C157   1.260       .  A
C157        O158   1.270       .  A
C157        C982   1.480       .  S
O158       Cr174   2.018       .  S
O159       Cr174   1.976       .  S
O159        C160   1.259       .  A
C160        O161   1.265       .  A
C160       C1122   1.492       .  S
O161       Cr175   2.015       .  S
O162       Cr175   1.954       .  S
O162        C163   1.258       .  A
C163        C917   1.482       .  S
O164       Cr173   1.987       .  S
O164        C172   1.260       .  A
O165       Cr173   2.030       .  S
O165        C166   1.270       .  A
C166        O167   1.256       .  A
C166       C1150   1.482       .  S
O167       Cr174   1.968       .  S
O168       Cr174   2.019       .  S
O168        C169   1.270       .  A
C169        O170   1.255       .  A
C169       C1654   1.471       .  S
O170       Cr175   1.949       .  S
O171       Cr175   2.013       .  S
O171        C172   1.266       .  A
C172       C1262   1.498       .  S
Cr173       O176   1.769       .  S
Cr174       O176   1.767       .  S
Cr175       O176   1.765       .  S
O177       Cr195   2.020       .  S
O177        C185   1.267       .  A
O178       Cr195   2.004       .  S
O178        C179   1.263       .  A
C179        O180   1.260       .  A
C179        C842   1.491       .  S
O180       Cr196   1.989       .  S
O181       Cr196   1.986       .  S
O181        C182   1.261       .  A
C182        O183   1.262       .  A
C182        C777   1.463       .  S
O183       Cr197   1.979       .  S
O184       Cr197   1.976       .  S
O184        C185   1.259       .  A
C185        C805   1.482       .  S
O186       Cr195   1.996       .  S
O186        C194   1.265       .  A
O187       Cr195   2.025       .  S
O187        C188   1.271       .  A
C188        O189   1.260       .  A
C188        C898   1.492       .  S
O189       Cr196   1.965       .  S
O190       Cr196   1.983       .  S
O190        C191   1.261   1_556  A
C191        O192   1.266       .  A
C191        C870   1.480       .  S
O192       Cr197   1.999   1_554  S
O193       Cr197   1.998       .  S
O193        C194   1.264       .  A
C194       C1290   1.499       .  S
Cr195       O198   1.778       .  S
Cr196       O198   1.770       .  S
Cr197       O198   1.770       .  S
O199       Cr217   2.041       .  S
O199        C207   1.276       .  A
O200       Cr217   1.973       .  S
O200        C201   1.263       .  A
C201        O202   1.270       .  A
C201        C889   1.491       .  S
O202       Cr218   2.019       .  S
O203       Cr218   1.969       .  S
O203        C204   1.257   1_556  A
C204        O205   1.267       .  A
C204        C702   1.492       .  S
O205       Cr219   2.026   1_554  S
O206       Cr219   1.957       .  S
O206        C207   1.258       .  A
C207       C1197   1.493       .  S
O208       Cr217   1.992       .  S
O208        C216   1.263       .  A
O209       Cr217   2.035       .  S
O209        C210   1.271       .  A
C210        O211   1.253       .  A
C210        C674   1.483       .  S
O211       Cr218   1.952       .  S
O212       Cr218   2.026       .  S
O212        C213   1.270       .  A
C213        O214   1.255       .  A
C213        C721   1.479       .  S
O214       Cr219   1.947       .  S
O215       Cr219   2.009       .  S
O215        C216   1.265       .  A
C216        C749   1.498       .  S
Cr217       O220   1.767       .  S
Cr218       O220   1.759       .  S
Cr219       O220   1.756       .  S
O221       Cr239   2.014       .  S
O221        C229   1.268       .  A
O222       Cr239   2.000       .  S
O222        C223   1.262       .  A
C223        O224   1.261       .  A
C223        C693   1.494       .  S
O224       Cr240   1.989       .  S
O225       Cr240   1.989       .  S
O225        C226   1.261       .  A
C226        O227   1.261       .  A
C226        C646   1.468       .  S
O227       Cr241   1.985       .  S
O228       Cr241   1.975       .  S
O228        C229   1.261       .  A
C229        C609   1.486       .  S
O230       Cr239   2.001       .  S
O230        C238   1.265       .  A
O231       Cr239   2.019       .  S
O231        C232   1.269       .  A
C232        O233   1.259       .  A
C232        C590   1.486       .  S
O233       Cr240   1.960       .  S
O234       Cr240   1.983       .  S
O234        C235   1.262       .  A
C235        O236   1.265       .  A
C235        C665   1.472       .  S
O236       Cr241   1.992       .  S
O237       Cr241   1.994       .  S
O237        C238   1.262       .  A
C238       C1542   1.499       .  S
Cr239       O242   1.777       .  S
Cr240       O242   1.770       .  S
Cr241       O242   1.770       .  S
O243       Cr261   2.037       .  S
O243        C251   1.274       .  A
O244       Cr261   1.969       .  S
O244        C245   1.261       .  A
C245        O246   1.270       .  A
C245        C581   1.482       .  S
O246       Cr262   2.016       .  S
O247       Cr262   1.970       .  S
O247        C248   1.258       .  A
C248        O249   1.268       .  A
C248        C833   1.498       .  S
O249       Cr263   2.028       .  S
O250       Cr263   1.967       .  S
O250        C251   1.261       .  A
C251       C1393   1.497       .  S
O252       Cr261   1.979       .  S
O252        C260   1.260       .  A
O253       Cr261   2.031       .  S
O253        C254   1.270       .  A
C254        O255   1.255       .  A
C254        C861   1.486       .  S
O255       Cr262   1.960       .  S
O256       Cr262   2.021       .  S
O256        C257   1.269       .  A
C257        O258   1.256       .  A
C257        C562   1.474       .  S
O258       Cr263   1.952       .  S
O259       Cr263   2.018       .  S
O259        C260   1.267       .  A
C260        C525   1.498       .  S
Cr261       O264   1.769       .  S
Cr262       O264   1.765       .  S
Cr263       O264   1.763       .  S
O265       Cr283   1.980       .  S
O265        C273   1.258       .  A
O266       Cr283   2.030       .  S
O266        C267   1.270       .  A
C267        O268   1.258       .  A
C267        C469   1.500       .  S
O268       Cr284   1.967       .  S
O269       Cr284   2.012       .  S
O269        C270   1.267       .  A
C270        O271   1.257       .  A
C270        C553   1.467       .  S
O271       Cr285   1.960       .  S
O272       Cr285   2.021       .  S
O272        C273   1.266       .  A
C273        C814   1.497       .  S
O274       Cr283   2.044       .  S
O274        C282   1.276       .  A
O275       Cr283   1.975       .  S
O275        C276   1.262       .  A
C276        O277   1.268       .  A
C276        C497   1.482       .  S
O277       Cr284   2.014       .  S
O278       Cr284   1.976       .  S
O278        C279   1.260       .  A
C279        O280   1.268       .  A
C279        C450   1.489       .  S
O280       Cr285   2.020       .  S
O281       Cr285   1.957       .  S
O281        C282   1.257       .  A
C282        C945   1.497       .  S
Cr283       O286   1.768       .  S
Cr284       O286   1.768       .  S
Cr285       O286   1.766       .  S
O287       Cr305   2.027       .  S
O287        C295   1.271       .  A
O288       Cr305   1.971       .  S
O288        C289   1.263       .  A
C289        O290   1.273       .  A
C289        C506   1.498       .  S
O290       Cr306   2.032       .  S
O291       Cr306   1.962       .  S
O291        C292   1.257       .  A
C292        O293   1.270       .  A
C292        C394   1.486       .  S
O293       Cr307   2.026       .  S
O294       Cr307   1.964       .  S
O294        C295   1.258       .  A
C295        C926   1.492       .  S
O296       Cr305   1.979       .  S
O296        C304   1.261       .  A
O297       Cr305   2.021       .  S
O297        C298   1.267       .  A
C298        O299   1.257       .  A
C298        C413   1.480       .  S
O299       Cr306   1.969       .  S
O300       Cr306   2.031       .  S
O300        C301   1.270       .  A
C301        O302   1.254       .  A
C301        C637   1.488       .  S
O302       Cr307   1.953       .  S
O303       Cr307   2.015       .  S
O303        C304   1.268       .  A
C304        C758   1.493       .  S
Cr305       O308   1.766       .  S
Cr306       O308   1.762       .  S
Cr307       O308   1.762       .  S
O309       Cr327   1.965       .  S
O309        C317   1.257       .  A
O310       Cr327   2.028       .  S
O310        C311   1.271       .  A
C311        O312   1.256       .  A
C311        C385   1.484       .  S
O312       Cr328   1.958       .  S
O313       Cr328   2.007       .  S
O313        C314   1.265       .  A
C314        O315   1.255       .  A
C314        C730   1.460       .  S
O315       Cr329   1.959       .  S
O316       Cr329   2.025       .  S
O316        C317   1.269       .  A
C317        C618   1.491       .  S
O318       Cr327   2.028       .  S
O318        C326   1.271       .  A
O319       Cr327   1.975       .  S
O319        C320   1.260       .  A
C320        O321   1.267       .  A
C320        C366   1.479       .  S
O321       Cr328   2.012       .  S
O322       Cr328   1.968       .  S
O322        C323   1.260   1_554  A
C323        O324   1.270   1_556  A
C323        C422   1.482       .  S
O324       Cr329   2.026       .  S
O325       Cr329   1.963       .  S
O325        C326   1.257       .  A
C326       C1094   1.475       .  S
Cr327       O330   1.764       .  S
Cr328       O330   1.764       .  S
Cr329       O330   1.763       .  S
O331       Cr349   2.034       .  S
O331        C339   1.272       .  A
O332       Cr349   1.971       .  S
O332        C333   1.263       .  A
C333        O334   1.271       .  A
C333        C357   1.488       .  S
O334       Cr350   2.019       .  S
O335       Cr350   1.974       .  S
O335        C336   1.259   1_554  A
C336        O337   1.268   1_556  A
C336        C478   1.493       .  S
O337       Cr351   2.030       .  S
O338       Cr351   1.961       .  S
O338        C339   1.258       .  A
C339       C1001   1.483       .  S
O340       Cr349   1.979       .  S
O340        C348   1.260       .  A
O341       Cr349   2.022       .  S
O341        C342   1.269       .  A
C342        O343   1.260       .  A
C342        C441   1.489       .  S
O343       Cr350   1.973       .  S
O344       Cr350   2.035       .  S
O344        C345   1.271       .  A
C345        O346   1.252       .  A
C345        C786   1.482       .  S
O346       Cr351   1.944       .  S
O347       Cr351   2.018       .  S
O347        C348   1.268       .  A
C348        C534   1.497       .  S
Cr349       O352   1.765       .  S
Cr350       O352   1.767       .  S
Cr351       O352   1.758       .  S
C353        C354   1.403       .  A
C353        C358   1.403       .  A
C353        H363   1.084       .  S
C354        C359   1.486   1_655  S
C354        C355   1.415       .  A
C355        C356   1.403       .  A
C355        N360   1.439       .  S
C356        C357   1.407       .  A
C356        H361   1.083       .  S
C357        C358   1.415       .  A
C358        N362   1.432       .  S
C359        C364   1.416       .  A
C359        C368   1.403       .  A
N360        O375   1.263   1_655  A
N360        O376   1.263       .  A
N362        O373   1.262       .  A
N362        O374   1.262       .  A
C364        C365   1.405       .  A
C364        N369   1.440       .  S
C365        C366   1.404       .  A
C365        H370   1.084       .  S
C366        C367   1.414       .  A
C367        C368   1.402       .  A
C367        N371   1.436       .  S
C368        H372   1.084       .  S
N369        O379   1.263       .  A
N369        O380   1.263       .  A
N371        O377   1.262       .  A
N371        O378   1.263       .  A
C381        C382   1.398       .  A
C381        C386   1.401       .  A
C381        H391   1.083       .  S
C382        C387   1.479       .  S
C382        C383   1.414       .  A
C383        C384   1.407       .  A
C383        N388   1.438       .  S
C384        C385   1.404       .  A
C384        H389   1.083       .  S
C385        C386   1.418       .  A
C386        N390   1.436       .  S
C387        C392   1.406       .  A
C387        C396   1.399       .  A
N388        O403   1.262       .  A
N388        O404   1.262       .  A
N390        O401   1.262       .  A
N390        O402   1.263       .  A
C392        C393   1.402       .  A
C392        N397   1.429       .  S
C393        C394   1.409       .  A
C393        H398   1.083       .  S
C394        C395   1.419       .  A
C395        C396   1.403       .  A
C395        N399   1.438       .  S
C396        H400   1.083       .  S
N397        O407   1.262       .  A
N397        O408   1.262       .  A
N399        O405   1.263       .  A
N399        O406   1.263       .  A
C409        C410   1.408       .  A
C409        C414   1.403       .  A
C409        H419   1.080       .  S
C410        C415   1.496       .  S
C410        C411   1.417       .  A
C411        C412   1.403       .  A
C411        N416   1.431       .  S
C412        C413   1.403       .  A
C412        H417   1.081       .  S
C413        C414   1.411       .  A
C414        N418   1.432       .  S
C415        C420   1.416       .  A
C415        C424   1.409       .  A
N416        O431   1.262       .  A
N416        O432   1.261       .  A
N418        O429   1.262       .  A
N418        O430   1.262       .  A
C420        C421   1.402       .  A
C420        N425   1.438       .  S
C421        C422   1.405       .  A
C421        H426   1.075       .  S
C422        C423   1.410       .  A
C423        C424   1.409       .  A
C423        N427   1.435       .  S
C424        H428   1.066       .  S
N425        O435   1.262       .  A
N425        O436   1.263       .  A
N427        O433   1.263       .  A
N427        O434   1.262       .  A
C437        C438   1.402       .  A
C437        C442   1.403       .  A
C437        H447   1.084       .  S
C438        C443   1.483       .  S
C438        C439   1.406       .  A
C439        C440   1.403       .  A
C439        N444   1.429       .  S
C440        C441   1.409       .  A
C440        H445   1.083       .  S
C441        C442   1.414       .  A
C442        N446   1.428       .  S
C443        C448   1.413       .  A
C443        C452   1.402       .  A
N444        O459   1.262       .  A
N444        O460   1.262       .  A
N446        O457   1.262       .  A
N446        O458   1.262       .  A
C448        C449   1.404       .  A
C448        N453   1.439       .  S
C449        C450   1.408       .  A
C449        H454   1.084       .  S
C450        C451   1.417       .  A
C451        C452   1.408       .  A
C451        N455   1.438       .  S
C452        H456   1.084       .  S
N453        O463   1.262       .  A
N453        O464   1.263       .  A
N455        O461   1.263       .  A
N455        O462   1.263       .  A
C465        C466   1.405       .  A
C465        C470   1.407       .  A
C465        H475   1.083       .  S
C466        C471   1.494       .  S
C466        C467   1.412       .  A
C467        C468   1.405       .  A
C467        N472   1.438       .  S
C468        C469   1.412       .  A
C468        H473   1.082       .  S
C469        C470   1.417       .  A
C470        N474   1.432       .  S
C471        C476   1.414       .  A
C471        C480   1.404       .  A
N472        O487   1.263       .  A
N472        O488   1.263       .  A
N474        O485   1.262       .  A
N474        O486   1.262       .  A
C476        C477   1.408       .  A
C476        N481   1.438       .  S
C477        C478   1.408       .  A
C477        H482   1.082       .  S
C478        C479   1.418       .  A
C479        C480   1.405       .  A
C479        N483   1.434       .  S
C480        H484   1.083       .  S
N481        O491   1.263       .  A
N481        O492   1.263       .  A
N483        O489   1.262       .  A
N483        O490   1.262       .  A
C493        C494   1.405       .  A
C493        C498   1.403       .  A
C493        H503   1.083       .  S
C494        C499   1.494   1_655  S
C494        C495   1.417       .  A
C495        C496   1.409       .  A
C495        N500   1.438       .  S
C496        C497   1.404       .  A
C496        H501   1.083       .  S
C497        C498   1.413       .  A
C498        N502   1.435       .  S
C499        C504   1.414       .  A
C499        C508   1.405       .  A
N500        O515   1.263       .  A
N500        O516   1.263   1_655  A
N502        O513   1.262       .  A
N502        O514   1.262       .  A
C504        C505   1.404       .  A
C504        N509   1.438       .  S
C505        C506   1.410       .  A
C505        H510   1.082       .  S
C506        C507   1.418       .  A
C507        C508   1.406       .  A
C507        N511   1.432       .  S
C508        H512   1.083       .  S
N509        O519   1.263       .  A
N509        O520   1.263       .  A
N511        O517   1.262       .  A
N511        O518   1.262       .  A
C521        C522   1.405       .  A
C521        C526   1.406       .  A
C521        H531   1.082       .  S
C522        C527   1.496       .  S
C522        C523   1.415       .  A
C523        C524   1.406       .  A
C523        N528   1.437       .  S
C524        C525   1.409       .  A
C524        H529   1.082       .  S
C525        C526   1.418       .  A
C526        N530   1.432       .  S
C527        C532   1.414       .  A
C527        C536   1.406       .  A
N528        O543   1.262       .  A
N528        O544   1.263       .  A
N530        O541   1.262       .  A
N530        O542   1.262       .  A
C532        C533   1.406       .  A
C532        N537   1.438       .  S
C533        C534   1.409       .  A
C533        H538   1.077       .  S
C534        C535   1.417       .  A
C535        C536   1.408       .  A
C535        N539   1.435       .  S
C536        H540   1.080       .  S
N537        O547   1.262       .  A
N537        O548   1.263       .  A
N539        O545   1.263       .  A
N539        O546   1.262       .  A
C549        C550   1.400       .  A
C549        C554   1.399       .  A
C549        H559   1.085       .  S
C550        C555   1.470       .  S
C550        C551   1.413       .  A
C551        C552   1.398       .  A
C551        N556   1.439       .  S
C552        C553   1.402       .  A
C552        H557   1.085       .  S
C553        C554   1.412       .  A
C554        N558   1.435       .  S
C555        C560   1.409       .  A
C555        C564   1.402       .  A
N556        O571   1.263       .  A
N556        O572   1.263       .  A
N558        O569   1.263       .  A
N558        O570   1.262       .  A
C560        C561   1.396       .  A
C560        N565   1.441       .  S
C561        C562   1.406       .  A
C561        H566   1.082       .  S
C562        C563   1.411       .  A
C563        C564   1.401       .  A
C563        N567   1.433       .  S
C564        H568   1.083       .  S
N565        O575   1.263       .  A
N565        O576   1.263       .  A
N567        O573   1.262       .  A
N567        O574   1.262       .  A
C577        C578   1.402       .  A
C577        C582   1.401       .  A
C577        H587   1.083       .  S
C578        C583   1.482       .  S
C578        C579   1.412       .  A
C579        C580   1.403       .  A
C579        N584   1.437       .  S
C580        C581   1.407       .  A
C580        H585   1.083       .  S
C581        C582   1.415       .  A
C582        N586   1.436       .  S
C583        C588   1.411       .  A
C583        C592   1.404       .  A
N584        O599   1.262       .  A
N584        O600   1.263       .  A
N586        O597   1.263       .  A
N586        O598   1.263       .  A
C588        C589   1.400       .  A
C588        N593   1.437       .  S
C589        C590   1.408       .  A
C589        H594   1.083       .  S
C590        C591   1.413       .  A
C591        C592   1.402       .  A
C591        N595   1.429       .  S
C592        H596   1.083       .  S
N593        O603   1.263       .  A
N593        O604   1.263       .  A
N595        O601   1.262       .  A
N595        O602   1.262       .  A
C605        C606   1.406       .  A
C605        C610   1.409       .  A
C605        H615   1.065       .  S
C606        C611   1.488       .  S
C606        C607   1.411       .  A
C607        C608   1.404       .  A
C607        N612   1.437       .  S
C608        C609   1.408       .  A
C608        H613   1.063       .  S
C609        C610   1.414       .  A
C610        N614   1.434       .  S
C611        C616   1.414       .  A
C611        C620   1.402       .  A
N612        O627   1.262       .  A
N612        O628   1.263       .  A
N614        O625   1.262       .  A
N614        O626   1.262       .  A
C616        C617   1.409       .  A
C616        N621   1.438       .  S
C617        C618   1.409       .  A
C617        H622   1.078       .  S
C618        C619   1.418       .  A
C619        C620   1.402       .  A
C619        N623   1.437       .  S
C620        H624   1.077       .  S
N621        O631   1.262       .  A
N621        O632   1.263       .  A
N623        O629   1.263       .  A
N623        O630   1.263       .  A
C633        C634   1.403       .  A
C633        C638   1.400       .  A
C633        H643   1.084       .  S
C634        C639   1.479       .  S
C634        C635   1.410       .  A
C635        C636   1.401       .  A
C635        N640   1.440       .  S
C636        C637   1.411       .  A
C636        H641   1.083       .  S
C637        C638   1.412       .  A
C638        N642   1.429       .  S
C639        C644   1.413       .  A
C639        C648   1.405       .  A
N640        O655   1.263       .  A
N640        O656   1.262       .  A
N642        O653   1.262       .  A
N642        O654   1.262       .  A
C644        C645   1.398       .  A
C644        N649   1.440       .  S
C645        C646   1.404       .  A
C645        H650   1.085       .  S
C646        C647   1.412       .  A
C647        C648   1.406       .  A
C647        N651   1.440       .  S
C648        H652   1.083       .  S
N649        O659   1.262       .  A
N649        O660   1.263       .  A
N651        O657   1.262       .  A
N651        O658   1.262       .  A
C661        C662   1.405       .  A
C661        C666   1.400       .  A
C661        H671   1.084       .  S
C662        C667   1.484       .  S
C662        C663   1.415       .  A
C663        C664   1.404       .  A
C663        N668   1.440       .  S
C664        C665   1.405       .  A
C664        H669   1.084       .  S
C665        C666   1.407       .  A
C666        N670   1.430       .  S
C667        C672   1.419       .  A
C667        C676   1.398       .  A
N668        O683   1.263       .  A
N668        O684   1.263       .  A
N670        O681   1.262       .  A
N670        O682   1.262       .  A
C672        C673   1.408       .  A
C672        N677   1.439       .  S
C673        C674   1.403       .  A
C673        H678   1.083       .  S
C674        C675   1.420       .  A
C675        C676   1.397       .  A
C675        N679   1.436       .  S
C676        H680   1.084       .  S
N677        O687   1.263       .  A
N677        O688   1.263       .  A
N679        O685   1.262       .  A
N679        O686   1.262       .  A
C689        C690   1.406       .  A
C689        C694   1.406       .  A
C689        H699   1.084       .  S
C690        C695   1.489       .  S
C690        C691   1.413       .  A
C691        C692   1.403       .  A
C691        N696   1.440       .  S
C692        C693   1.410       .  A
C692        H697   1.083       .  S
C693        C694   1.414       .  A
C694        N698   1.429       .  S
C695        C700   1.416       .  A
C695        C704   1.403       .  A
N696        O711   1.262       .  A
N696        O712   1.263       .  A
N698        O709   1.262       .  A
N698        O710   1.262       .  A
C700        C701   1.405       .  A
C700        N705   1.440       .  S
C701        C702   1.408       .  A
C701        H706   1.083       .  S
C702        C703   1.416       .  A
C703        C704   1.403       .  A
C703        N707   1.430       .  S
C704        H708   1.084       .  S
N705        O715   1.263       .  A
N705        O716   1.263       .  A
N707        O713   1.262       .  A
N707        O714   1.262       .  A
C717        C718   1.405       .  A
C717        C722   1.398       .  A
C717        H727   1.083       .  S
C718        C723   1.476       .  S
C718        C719   1.412       .  A
C719        C720   1.395       .  A
C719        N724   1.439       .  S
C720        C721   1.408       .  A
C720        H725   1.082       .  S
C721        C722   1.410       .  A
C722        N726   1.429       .  S
C723        C728   1.414       .  A
C723        C732   1.404   1_556  A
N724        O739   1.263   1_556  A
N724        O740   1.263       .  A
N726        O737   1.262       .  A
N726        O738   1.262       .  A
C728        C729   1.397       .  A
C728        N733   1.438       .  S
C729        C730   1.400   1_556  A
C729        H734   1.085       .  S
C730        C731   1.409       .  A
C731        C732   1.398       .  A
C731        N735   1.438       .  S
C732        H736   1.084       .  S
N733        O743   1.263       .  A
N733        O744   1.263       .  A
N735        O741   1.263       .  A
N735        O742   1.263       .  A
C745        C746   1.401       .  A
C745        C750   1.403       .  A
C745        H755   1.084       .  S
C746        C751   1.491       .  S
C746        C747   1.413       .  A
C747        C748   1.408       .  A
C747        N752   1.436       .  S
C748        C749   1.409       .  A
C748        H753   1.083       .  S
C749        C750   1.419       .  A
C750        N754   1.431       .  S
C751        C756   1.412       .  A
C751        C760   1.405       .  A
N752        O767   1.262       .  A
N752        O768   1.262       .  A
N754        O765   1.262       .  A
N754        O766   1.262       .  A
C756        C757   1.403       .  A
C756        N761   1.437       .  S
C757        C758   1.408       .  A
C757        H762   1.083       .  S
C758        C759   1.417       .  A
C759        C760   1.408       .  A
C759        N763   1.435       .  S
C760        H764   1.083       .  S
N761        O771   1.262       .  A
N761        O772   1.263       .  A
N763        O769   1.263       .  A
N763        O770   1.262       .  A
C773        C774   1.403       .  A
C773        C778   1.406       .  A
C773        H783   1.083       .  S
C774        C779   1.470   1_556  S
C774        C775   1.410   1_556  A
C775        C776   1.393       .  A
C775        N780   1.439       .  S
C776        C777   1.402   1_554  A
C776        H781   1.085       .  S
C777        C778   1.412       .  A
C778        N782   1.440       .  S
C779        C784   1.406       .  A
C779        C788   1.403       .  A
N780        O795   1.263       .  A
N780        O796   1.262       .  A
N782        O793   1.262       .  A
N782        O794   1.262       .  A
C784        C785   1.394       .  A
C784        N789   1.439       .  S
C785        C786   1.410       .  A
C785        H790   1.083       .  S
C786        C787   1.412       .  A
C787        C788   1.403       .  A
C787        N791   1.432       .  S
C788        H792   1.084   1_554  S
N789        O799   1.263   1_554  A
N789        O800   1.263       .  A
N791        O797   1.262   1_554  A
N791        O798   1.263       .  A
C801        C802   1.406       .  A
C801        C806   1.410       .  A
C801        H811   1.076       .  S
C802        C807   1.486       .  S
C802        C803   1.407       .  A
C803        C804   1.400       .  A
C803        N808   1.430       .  S
C804        C805   1.404       .  A
C804        H809   1.075       .  S
C805        C806   1.411       .  A
C806        N810   1.429       .  S
C807        C812   1.406       .  A
C807        C816   1.400       .  A
N808        O823   1.261       .  A
N808        O824   1.262       .  A
N810        O821   1.262       .  A
N810        O822   1.262       .  A
C812        C813   1.405       .  A
C812        N817   1.429       .  S
C813        C814   1.411       .  A
C813        H818   1.082       .  S
C814        C815   1.421       .  A
C815        C816   1.406       .  A
C815        N819   1.436       .  S
C816        H820   1.082       .  S
N817        O827   1.262       .  A
N817        O828   1.262       .  A
N819        O825   1.263       .  A
N819        O826   1.263       .  A
C829        C830   1.401       .  A
C829        C834   1.405       .  A
C829        H839   1.084       .  S
C830        C835   1.486       .  S
C830        C831   1.409       .  A
C831        C832   1.405       .  A
C831        N836   1.434       .  S
C832        C833   1.411       .  A
C832        H837   1.083       .  S
C833        C834   1.420       .  A
C834        N838   1.431       .  S
C835        C840   1.409       .  A
C835        C844   1.406       .  A
N836        O851   1.262       .  A
N836        O852   1.262       .  A
N838        O849   1.262       .  A
N838        O850   1.262       .  A
C840        C841   1.401       .  A
C840        N845   1.436       .  S
C841        C842   1.409       .  A
C841        H846   1.083       .  S
C842        C843   1.413       .  A
C843        C844   1.408       .  A
C843        N847   1.429       .  S
C844        H848   1.083       .  S
N845        O855   1.262       .  A
N845        O856   1.262       .  A
N847        O853   1.262       .  A
N847        O854   1.262       .  A
C857        C858   1.399       .  A
C857        C862   1.401       .  A
C857        H867   1.084       .  S
C858        C863   1.488       .  S
C858        C859   1.419       .  A
C859        C860   1.408       .  A
C859        N864   1.440       .  S
C860        C861   1.403       .  A
C860        H865   1.083       .  S
C861        C862   1.419       .  A
C862        N866   1.436       .  S
C863        C868   1.415       .  A
C863        C872   1.406       .  A
N864        O879   1.263       .  A
N864        O880   1.263       .  A
N866        O877   1.262       .  A
N866        O878   1.262       .  A
C868        C869   1.403       .  A
C868        N873   1.440       .  S
C869        C870   1.406       .  A
C869        H874   1.084       .  S
C870        C871   1.408       .  A
C871        C872   1.404       .  A
C871        N875   1.428       .  S
C872        H876   1.084       .  S
N873        O883   1.263       .  A
N873        O884   1.263       .  A
N875        O881   1.262       .  A
N875        O882   1.262       .  A
C885        C886   1.405       .  A
C885        C890   1.400       .  A
C885        H895   1.082       .  S
C886        C891   1.491       .  S
C886        C887   1.416       .  A
C887        C888   1.405       .  A
C887        N892   1.438       .  S
C888        C889   1.408       .  A
C888        H893   1.082       .  S
C889        C890   1.414       .  A
C890        N894   1.429       .  S
C891        C896   1.414       .  A
C891        C900   1.406       .  A
N892        O907   1.263       .  A
N892        O908   1.263       .  A
N894        O905   1.262       .  A
N894        O906   1.262       .  A
C896        C897   1.402       .  A
C896        N901   1.438       .  S
C897        C898   1.409       .  A
C897        H902   1.082       .  S
C898        C899   1.416       .  A
C899        C900   1.405       .  A
C899        N903   1.433       .  S
C900        H904   1.082       .  S
N901        O911   1.263       .  A
N901        O912   1.263   1_556  A
N903        O909   1.262       .  A
N903        O910   1.263       .  A
C913        C914   1.408       .  A
C913        C918   1.407       .  A
C913        H923   1.084       .  S
C914        C919   1.488       .  S
C914        C915   1.415       .  A
C915        C916   1.400       .  A
C915        N920   1.440       .  S
C916        C917   1.405       .  A
C916        H921   1.084       .  S
C917        C918   1.409       .  A
C918        N922   1.431       .  S
C919        C924   1.418       .  A
C919        C928   1.400       .  A
N920        O935   1.263       .  A
N920        O936   1.263       .  A
N922        O933   1.262       .  A
N922        O934   1.262       .  A
C924        C925   1.407       .  A
C924        N929   1.441       .  S
C925        C926   1.406       .  A
C925        H930   1.083       .  S
C926        C927   1.419       .  A
C927        C928   1.401       .  A
C927        N931   1.434       .  S
C928        H932   1.084       .  S
N929        O939   1.263       .  A
N929        O940   1.263       .  A
N931        O937   1.263       .  A
N931        O938   1.262       .  A
C941        C942   1.400       .  A
C941        C946   1.399       .  A
C941        H951   1.083       .  S
C942        C947   1.495       .  S
C942        C943   1.419       .  A
C943        C944   1.412       .  A
C943        N948   1.439       .  S
C944        C945   1.407       .  A
C944        H949   1.082       .  S
C945        C946   1.421       .  A
C946        N950   1.432       .  S
C947        C952   1.420       .  A
C947        C956   1.402       .  A
N948        O963   1.263       .  A
N948        O964   1.263       .  A
N950        O961   1.262       .  A
N950        O962   1.262       .  A
C952        C953   1.411       .  A
C952        N957   1.438       .  S
C953        C954   1.404       .  A
C953        H958   1.083       .  S
C954        C955   1.415       .  A
C955        C956   1.400       .  A
C955        N959   1.432       .  S
C956        H960   1.083       .  S
N957        O967   1.263       .  A
N957        O968   1.263       .  A
N959        O965   1.262       .  A
N959        O966   1.262       .  A
C969        C970   1.406       .  A
C969        C974   1.402       .  A
C969        H979   1.084       .  S
C970        C975   1.494   1_655  S
C970        C971   1.418       .  A
C971        C972   1.408       .  A
C971        N976   1.439       .  S
C972        C973   1.405       .  A
C972        H977   1.083       .  S
C973        C974   1.411       .  A
C974        N978   1.432       .  S
C975        C980   1.421       .  A
C975        C984   1.405       .  A
N976        O991   1.263       .  A
N976        O992   1.263       .  A
N978        O989   1.262       .  A
N978        O990   1.262       .  A
C980        C981   1.409       .  A
C980        N985   1.439       .  S
C981        C982   1.403       .  A
C981        H986   1.084       .  S
C982        C983   1.411       .  A
C983        C984   1.400       .  A
C983        N987   1.432       .  S
C984        H988   1.084       .  S
N985        O995   1.263   1_455  A
N985        O996   1.263       .  A
N987        O993   1.262       .  A
N987        O994   1.262       .  A
C997        C998   1.405   1_556  A
C997       C1002   1.403   1_556  A
C997       H1007   1.083       .  S
C998       C1003   1.494   1_544  S
C998        C999   1.418       .  A
C999       C1000   1.406       .  A
C999       N1004   1.437   1_545  S
C1000      C1001   1.404       .  A
C1000      H1005   1.083       .  S
C1001      C1002   1.415       .  A
C1002      N1006   1.437   1_554  S
C1003      C1008   1.419       .  A
C1003      C1012   1.405   1_556  A
N1004      O1019   1.263       .  A
N1004      O1020   1.263       .  A
N1006      O1017   1.263       .  A
N1006      O1018   1.263       .  A
C1008      C1009   1.407       .  A
C1008      N1013   1.438   1_565  S
C1009      C1010   1.402       .  A
C1009      H1014   1.083       .  S
C1010      C1011   1.411   1_556  A
C1011      C1012   1.402       .  A
C1011      N1015   1.433       .  S
C1012      H1016   1.083       .  S
N1013      O1023   1.263       .  A
N1013      O1024   1.263       .  A
N1015      O1021   1.262       .  A
N1015      O1022   1.262       .  A
C1025      C1026   1.399       .  A
C1025      C1030   1.399       .  A
C1025      H1035   1.084       .  S
C1026      C1031   1.485       .  S
C1026      C1027   1.420       .  A
C1027      C1028   1.406       .  A
C1027      N1032   1.440       .  S
C1028      C1029   1.401       .  A
C1028      H1033   1.083       .  S
C1029      C1030   1.415       .  A
C1030      N1034   1.433       .  S
C1031      C1036   1.413       .  A
C1031      C1040   1.406       .  A
N1032      O1047   1.263       .  A
N1032      O1048   1.263       .  A
N1034      O1045   1.262       .  A
N1034      O1046   1.262       .  A
C1036      C1037   1.401       .  A
C1036      N1041   1.441       .  S
C1037      C1038   1.404       .  A
C1037      H1042   1.084       .  S
C1038      C1039   1.410       .  A
C1039      C1040   1.404       .  A
C1039      N1043   1.433       .  S
C1040      H1044   1.084       .  S
N1041      O1051   1.263       .  A
N1041      O1052   1.263       .  A
N1043      O1049   1.262       .  A
N1043      O1050   1.262       .  A
C1053      C1054   1.404       .  A
C1053      C1058   1.402       .  A
C1053      H1063   1.084       .  S
C1054      C1059   1.485       .  S
C1054      C1055   1.411       .  A
C1055      C1056   1.403       .  A
C1055      N1060   1.436       .  S
C1056      C1057   1.410       .  A
C1056      H1061   1.083       .  S
C1057      C1058   1.415       .  A
C1058      N1062   1.429       .  S
C1059      C1064   1.410       .  A
C1059      C1068   1.407       .  A
N1060      O1075   1.263       .  A
N1060      O1076   1.262       .  A
N1062      O1073   1.262       .  A
N1062      O1074   1.262       .  A
C1064      C1065   1.399       .  A
C1064      N1069   1.439       .  S
C1065      C1066   1.409       .  A
C1065      H1070   1.083       .  S
C1066      C1067   1.413       .  A
C1067      C1068   1.407       .  A
C1067      N1071   1.430       .  S
C1068      H1072   1.083       .  S
N1069      O1079   1.263       .  A
N1069      O1080   1.263       .  A
N1071      O1077   1.262       .  A
N1071      O1078   1.262       .  A
C1081      C1082   1.402   1_554  A
C1081      C1086   1.401       .  A
C1081      H1091   1.084       .  S
C1082      C1087   1.487   1_566  S
C1082      C1083   1.418       .  A
C1083      C1084   1.406       .  A
C1083      N1088   1.439   1_565  S
C1084      C1085   1.404       .  A
C1084      H1089   1.083       .  S
C1085      C1086   1.414   1_556  A
C1086      N1090   1.436       .  S
C1087      C1092   1.416   1_554  A
C1087      C1096   1.405       .  A
N1088      O1103   1.263       .  A
N1088      O1104   1.263       .  A
N1090      O1101   1.263       .  A
N1090      O1102   1.262       .  A
C1092      C1093   1.405   1_556  A
C1092      N1097   1.440       .  S
C1093      C1094   1.404       .  A
C1093      H1098   1.084   1_554  S
C1094      C1095   1.411       .  A
C1095      C1096   1.401       .  A
C1095      N1099   1.434       .  S
C1096      H1100   1.084       .  S
N1097      O1107   1.263       .  A
N1097      O1108   1.263       .  A
N1099      O1105   1.262       .  A
N1099      O1106   1.262       .  A
C1109      C1110   1.405       .  A
C1109      C1114   1.402       .  A
C1109      H1119   1.083       .  S
C1110      C1115   1.492       .  S
C1110      C1111   1.415       .  A
C1111      C1112   1.405       .  A
C1111      N1116   1.439       .  S
C1112      C1113   1.410       .  A
C1112      H1117   1.083       .  S
C1113      C1114   1.414       .  A
C1114      N1118   1.430       .  S
C1115      C1120   1.415       .  A
C1115      C1124   1.404       .  A
N1116      O1131   1.263       .  A
N1116      O1132   1.263       .  A
N1118      O1129   1.262       .  A
N1118      O1130   1.262       .  A
C1120      C1121   1.406       .  A
C1120      N1125   1.438       .  S
C1121      C1122   1.408       .  A
C1121      H1126   1.083       .  S
C1122      C1123   1.417       .  A
C1123      C1124   1.401       .  A
C1123      N1127   1.432       .  S
C1124      H1128   1.083       .  S
N1125      O1135   1.263       .  A
N1125      O1136   1.263       .  A
N1127      O1133   1.262       .  A
N1127      O1134   1.262       .  A
C1137      C1138   1.410       .  A
C1137      C1142   1.410       .  A
C1137      H1147   1.082       .  S
C1138      C1143   1.500       .  S
C1138      C1139   1.416       .  A
C1139      C1140   1.402       .  A
C1139      N1144   1.438       .  S
C1140      C1141   1.406       .  A
C1140      H1145   1.083       .  S
C1141      C1142   1.412       .  A
C1142      N1146   1.430       .  S
C1143      C1148   1.416       .  A
C1143      C1152   1.408       .  A
N1144      O1159   1.263       .  A
N1144      O1160   1.263       .  A
N1146      O1157   1.262       .  A
N1146      O1158   1.262       .  A
C1148      C1149   1.405       .  A
C1148      N1153   1.434       .  S
C1149      C1150   1.404       .  A
C1149      H1154   1.083       .  S
C1150      C1151   1.413       .  A
C1151      C1152   1.407       .  A
C1151      N1155   1.438       .  S
C1152      H1156   1.082       .  S
N1153      O1163   1.262       .  A
N1153      O1164   1.261       .  A
N1155      O1161   1.262       .  A
N1155      O1162   1.263       .  A
C1165      C1166   1.404       .  A
C1165      C1170   1.401       .  A
C1165      H1175   1.079       .  S
C1166      C1171   1.484   1_655  S
C1166      C1167   1.413       .  A
C1167      C1168   1.405       .  A
C1167      N1172   1.439       .  S
C1168      C1169   1.405       .  A
C1168      H1173   1.075       .  S
C1169      C1170   1.413       .  A
C1170      N1174   1.437       .  S
C1171      C1176   1.412       .  A
C1171      C1180   1.404       .  A
N1172      O1187   1.262       .  A
N1172      O1188   1.263   1_656  A
N1174      O1185   1.262       .  A
N1174      O1186   1.262       .  A
C1176      C1177   1.402       .  A
C1176      N1181   1.439       .  S
C1177      C1178   1.408       .  A
C1177      H1182   1.082       .  S
C1178      C1179   1.415       .  A
C1179      C1180   1.401       .  A
C1179      N1183   1.432       .  S
C1180      H1184   1.082       .  S
N1181      O1191   1.263       .  A
N1181      O1192   1.263       .  A
N1183      O1189   1.262       .  A
N1183      O1190   1.262       .  A
C1193      C1194   1.399   1_554  A
C1193      C1198   1.396       .  A
C1193      H1203   1.084       .  S
C1194      C1199   1.489   1_556  S
C1194      C1195   1.418       .  A
C1195      C1196   1.410       .  A
C1195      N1200   1.440       .  S
C1196      C1197   1.407       .  A
C1196      H1201   1.083       .  S
C1197      C1198   1.418   1_556  A
C1198      N1202   1.430       .  S
C1199      C1204   1.414   1_554  A
C1199      C1208   1.406       .  A
N1200      O1215   1.263       .  A
N1200      O1216   1.263       .  A
N1202      O1213   1.262       .  A
N1202      O1214   1.262       .  A
C1204      C1205   1.403   1_556  A
C1204      N1209   1.439       .  S
C1205      C1206   1.409       .  A
C1205      H1210   1.083   1_554  S
C1206      C1207   1.413       .  A
C1207      C1208   1.404       .  A
C1207      N1211   1.431       .  S
C1208      H1212   1.084       .  S
N1209      O1219   1.263       .  A
N1209      O1220   1.263       .  A
N1211      O1217   1.262       .  A
N1211      O1218   1.262       .  A
C1221      C1222   1.398       .  A
C1221      C1226   1.390       .  A
C1221      H1231   1.084       .  S
C1222      C1227   1.472       .  S
C1222      C1223   1.414       .  A
C1223      C1224   1.404       .  A
C1223      N1228   1.440       .  S
C1224      C1225   1.404       .  A
C1224      H1229   1.083       .  S
C1225      C1226   1.415       .  A
C1226      N1230   1.434       .  S
C1227      C1232   1.414   1_554  A
C1227      C1236   1.398       .  A
N1228      O1243   1.263       .  A
N1228      O1244   1.263       .  A
N1230      O1241   1.263       .  A
N1230      O1242   1.262       .  A
C1232      C1233   1.401       .  A
C1232      N1237   1.438       .  S
C1233      C1234   1.403       .  A
C1233      H1238   1.084       .  S
C1234      C1235   1.412   1_556  A
C1235      C1236   1.391       .  A
C1235      N1239   1.430       .  S
C1236      H1240   1.085       .  S
N1237      O1247   1.262       .  A
N1237      O1248   1.263       .  A
N1239      O1245   1.262       .  A
N1239      O1246   1.261       .  A
C1249      C1250   1.403       .  A
C1249      C1254   1.404       .  A
C1249      H1259   1.083       .  S
C1250      C1255   1.496       .  S
C1250      C1251   1.415       .  A
C1251      C1252   1.410       .  A
C1251      N1256   1.439       .  S
C1252      C1253   1.410       .  A
C1252      H1257   1.082       .  S
C1253      C1254   1.418       .  A
C1254      N1258   1.430       .  S
C1255      C1260   1.414       .  A
C1255      C1264   1.404       .  A
N1256      O1271   1.263       .  A
N1256      O1272   1.263       .  A
N1258      O1269   1.262       .  A
N1258      O1270   1.262       .  A
C1260      C1261   1.409       .  A
C1260      N1265   1.438       .  S
C1261      C1262   1.410       .  A
C1261      H1266   1.082       .  S
C1262      C1263   1.418       .  A
C1263      C1264   1.404       .  A
C1263      N1267   1.431       .  S
C1264      H1268   1.083       .  S
N1265      O1275   1.263       .  A
N1265      O1276   1.263       .  A
N1267      O1273   1.262       .  A
N1267      O1274   1.262       .  A
C1277      C1278   1.402   1_556  A
C1277      C1282   1.402   1_556  A
C1277      H1287   1.083       .  S
C1278      C1283   1.493       .  S
C1278      C1279   1.416       .  A
C1279      C1280   1.409       .  A
C1279      N1284   1.437       .  S
C1280      C1281   1.406       .  A
C1280      H1285   1.083       .  S
C1281      C1282   1.418       .  A
C1282      N1286   1.433   1_554  S
C1283      C1288   1.416   1_554  A
C1283      C1292   1.401       .  A
N1284      O1299   1.263       .  A
N1284      O1300   1.263       .  A
N1286      O1297   1.262       .  A
N1286      O1298   1.262       .  A
C1288      C1289   1.410       .  A
C1288      N1293   1.437       .  S
C1289      C1290   1.409       .  A
C1289      H1294   1.082       .  S
C1290      C1291   1.420       .  A
C1291      C1292   1.400   1_556  A
C1291      N1295   1.430   1_556  S
C1292      H1296   1.083       .  S
N1293      O1303   1.262       .  A
N1293      O1304   1.263   1_556  A
N1295      O1301   1.262   1_554  A
N1295      O1302   1.262       .  A
C1305      C1306   1.397       .  A
C1305      C1310   1.391       .  A
C1305      H1315   1.084   1_554  S
C1306      C1311   1.475   1_554  S
C1306      C1307   1.416       .  A
C1307      C1308   1.405       .  A
C1307      N1312   1.438       .  S
C1308      C1309   1.403       .  A
C1308      H1313   1.083       .  S
C1309      C1310   1.416       .  A
C1310      N1314   1.436       .  S
C1311      C1316   1.414   1_556  A
C1311      C1320   1.400       .  A
N1312      O1327   1.263       .  A
N1312      O1328   1.263       .  A
N1314      O1325   1.262       .  A
N1314      O1326   1.262   1_554  A
C1316      C1317   1.400   1_554  A
C1316      N1321   1.439       .  S
C1317      C1318   1.403       .  A
C1317      H1322   1.084   1_556  S
C1318      C1319   1.414       .  A
C1319      C1320   1.397       .  A
C1319      N1323   1.435       .  S
C1320      H1324   1.084       .  S
N1321      O1331   1.263       .  A
N1321      O1332   1.263       .  A
N1323      O1329   1.263       .  A
N1323      O1330   1.262       .  A
C1333      C1334   1.404       .  A
C1333      C1338   1.404       .  A
C1333      H1343   1.082       .  S
C1334      C1339   1.496       .  S
C1334      C1335   1.413       .  A
C1335      C1336   1.410       .  A
C1335      N1340   1.435       .  S
C1336      C1337   1.410       .  A
C1336      H1341   1.082       .  S
C1337      C1338   1.419       .  A
C1338      N1342   1.436       .  S
C1339      C1344   1.414       .  A
C1339      C1348   1.409       .  A
N1340      O1355   1.262       .  A
N1340      O1356   1.263       .  A
N1342      O1353   1.263       .  A
N1342      O1354   1.263       .  A
C1344      C1345   1.403       .  A
C1344      N1349   1.440       .  S
C1345      C1346   1.406       .  A
C1345      H1350   1.077       .  S
C1346      C1347   1.414       .  A
C1347      C1348   1.412       .  A
C1347      N1351   1.436       .  S
C1348      H1352   1.079       .  S
N1349      O1359   1.263       .  A
N1349      O1360   1.263       .  A
N1351      O1357   1.263       .  A
N1351      O1358   1.262       .  A
C1361      C1362   1.404       .  A
C1361      C1366   1.402       .  A
C1361      H1371   1.083       .  S
C1362      C1367   1.493       .  S
C1362      C1363   1.417       .  A
C1363      C1364   1.407       .  A
C1363      N1368   1.439       .  S
C1364      C1365   1.406       .  A
C1364      H1369   1.083       .  S
C1365      C1366   1.416       .  A
C1366      N1370   1.434       .  S
C1367      C1372   1.417       .  A
C1367      C1376   1.404       .  A
N1368      O1383   1.263       .  A
N1368      O1384   1.263       .  A
N1370      O1381   1.262       .  A
N1370      O1382   1.262       .  A
C1372      C1373   1.406       .  A
C1372      N1377   1.439       .  S
C1373      C1374   1.406       .  A
C1373      H1378   1.083       .  S
C1374      C1375   1.416       .  A
C1375      C1376   1.403       .  A
C1375      N1379   1.435       .  S
C1376      H1380   1.083       .  S
N1377      O1387   1.263       .  A
N1377      O1388   1.263       .  A
N1379      O1385   1.262       .  A
N1379      O1386   1.263       .  A
C1389      C1390   1.403       .  A
C1389      C1394   1.407       .  A
C1389      H1399   1.084   1_545  S
C1390      C1395   1.485   1_545  S
C1390      C1391   1.408       .  A
C1391      C1392   1.402       .  A
C1391      N1396   1.435       .  S
C1392      C1393   1.410       .  A
C1392      H1397   1.083       .  S
C1393      C1394   1.417       .  A
C1394      N1398   1.429       .  S
C1395      C1400   1.410       .  A
C1395      C1404   1.400       .  A
N1396      O1411   1.262       .  A
N1396      O1412   1.262       .  A
N1398      O1409   1.262       .  A
N1398      O1410   1.262       .  A
C1400      C1401   1.409       .  A
C1400      N1405   1.430       .  S
C1401      C1402   1.407       .  A
C1401      H1406   1.083       .  S
C1402      C1403   1.416       .  A
C1403      C1404   1.399       .  A
C1403      N1407   1.433       .  S
C1404      H1408   1.084       .  S
N1405      O1415   1.262       .  A
N1405      O1416   1.262       .  A
N1407      O1413   1.262       .  A
N1407      O1414   1.262       .  A
C1417      C1418   1.403       .  A
C1417      C1422   1.400       .  A
C1417      H1427   1.084       .  S
C1418      C1423   1.481       .  S
C1418      C1419   1.415       .  A
C1419      C1420   1.402       .  A
C1419      N1424   1.438       .  S
C1420      C1421   1.400       .  A
C1420      H1425   1.085       .  S
C1421      C1422   1.409       .  A
C1422      N1426   1.437       .  S
C1423      C1428   1.411       .  A
C1423      C1432   1.409       .  A
N1424      O1439   1.263       .  A
N1424      O1440   1.263       .  A
N1426      O1437   1.262       .  A
N1426      O1438   1.263       .  A
C1428      C1429   1.396       .  A
C1428      N1433   1.438       .  S
C1429      C1430   1.405       .  A
C1429      H1434   1.084       .  S
C1430      C1431   1.406       .  A
C1431      C1432   1.404       .  A
C1431      N1435   1.432       .  S
C1432      H1436   1.084       .  S
N1433      O1443   1.263       .  A
N1433      O1444   1.263       .  A
N1435      O1441   1.262       .  A
N1435      O1442   1.262       .  A
C1445      C1446   1.407       .  A
C1445      C1450   1.408       .  A
C1445      H1455   1.082       .  S
C1446      C1451   1.495       .  S
C1446      C1447   1.415       .  A
C1447      C1448   1.403       .  A
C1447      N1452   1.438       .  S
C1448      C1449   1.408       .  A
C1448      H1453   1.083       .  S
C1449      C1450   1.415       .  A
C1450      N1454   1.435       .  S
C1451      C1456   1.416       .  A
C1451      C1460   1.406       .  A
N1452      O1467   1.263       .  A
N1452      O1468   1.263       .  A
N1454      O1465   1.262       .  A
N1454      O1466   1.263       .  A
C1456      C1457   1.405       .  A
C1456      N1461   1.435       .  S
C1457      C1458   1.404       .  A
C1457      H1462   1.082       .  S
C1458      C1459   1.414       .  A
C1459      C1460   1.404       .  A
C1459      N1463   1.436       .  S
C1460      H1464   1.082       .  S
N1461      O1471   1.262       .  A
N1461      O1472   1.262       .  A
N1463      O1469   1.262       .  A
N1463      O1470   1.262       .  A
C1473      C1474   1.404       .  A
C1473      C1478   1.407       .  A
C1473      H1483   1.083       .  S
C1474      C1479   1.485       .  S
C1474      C1475   1.408       .  A
C1475      C1476   1.402       .  A
C1475      N1480   1.437       .  S
C1476      C1477   1.412       .  A
C1476      H1481   1.082       .  S
C1477      C1478   1.418       .  A
C1478      N1482   1.435       .  S
C1479      C1484   1.409       .  A
C1479      C1488   1.404       .  A
N1480      O1495   1.262       .  A
N1480      O1496   1.263       .  A
N1482      O1493   1.262       .  A
N1482      O1494   1.263       .  A
C1484      C1485   1.402       .  A
C1484      N1489   1.434       .  S
C1485      C1486   1.407       .  A
C1485      H1490   1.083       .  S
C1486      C1487   1.416       .  A
C1487      C1488   1.406       .  A
C1487      N1491   1.435       .  S
C1488      H1492   1.083       .  S
N1489      O1499   1.262       .  A
N1489      O1500   1.262       .  A
N1491      O1497   1.262       .  A
N1491      O1498   1.262       .  A
C1501      C1502   1.399       .  A
C1501      C1506   1.403       .  A
C1501      H1511   1.083       .  S
C1502      C1507   1.481       .  S
C1502      C1503   1.414       .  A
C1503      C1504   1.403       .  A
C1503      N1508   1.434       .  S
C1504      C1505   1.402       .  A
C1504      H1509   1.083       .  S
C1505      C1506   1.418       .  A
C1506      N1510   1.434       .  S
C1507      C1512   1.407       .  A
C1507      C1516   1.399       .  A
N1508      O1523   1.262       .  A
N1508      O1524   1.262       .  A
N1510      O1521   1.262       .  A
N1510      O1522   1.263       .  A
C1512      C1513   1.404       .  A
C1512      N1517   1.429       .  S
C1513      C1514   1.406       .  A
C1513      H1518   1.084       .  S
C1514      C1515   1.417       .  A
C1515      C1516   1.402       .  A
C1515      N1519   1.435       .  S
C1516      H1520   1.084       .  S
N1517      O1527   1.262       .  A
N1517      O1528   1.262       .  A
N1519      O1525   1.261       .  A
N1519      O1526   1.262       .  A
C1529      C1530   1.403       .  A
C1529      C1534   1.405       .  A
C1529      H1539   1.083       .  S
C1530      C1535   1.495   1_565  S
C1530      C1531   1.417       .  A
C1531      C1532   1.409       .  A
C1531      N1536   1.438   1_565  S
C1532      C1533   1.406       .  A
C1532      H1537   1.083       .  S
C1533      C1534   1.418       .  A
C1534      N1538   1.435       .  S
C1535      C1540   1.417       .  A
C1535      C1544   1.401       .  A
N1536      O1551   1.263       .  A
N1536      O1552   1.263       .  A
N1538      O1549   1.263       .  A
N1538      O1550   1.262       .  A
C1540      C1541   1.412       .  A
C1540      N1545   1.438       .  S
C1541      C1542   1.409       .  A
C1541      H1546   1.082       .  S
C1542      C1543   1.421       .  A
C1543      C1544   1.401       .  A
C1543      N1547   1.433       .  S
C1544      H1548   1.083       .  S
N1545      O1555   1.263       .  A
N1545      O1556   1.263       .  A
N1547      O1553   1.262       .  A
N1547      O1554   1.262       .  A
C1557      C1558   1.404       .  A
C1557      C1562   1.403       .  A
C1557      H1567   1.083       .  S
C1558      C1563   1.494       .  S
C1558      C1559   1.415       .  A
C1559      C1560   1.406       .  A
C1559      N1564   1.436       .  S
C1560      C1561   1.407       .  A
C1560      H1565   1.083       .  S
C1561      C1562   1.419       .  A
C1562      N1566   1.432       .  S
C1563      C1568   1.415       .  A
C1563      C1572   1.407       .  A
N1564      O1579   1.262       .  A
N1564      O1580   1.263       .  A
N1566      O1577   1.262       .  A
N1566      O1578   1.262       .  A
C1568      C1569   1.404       .  A
C1568      N1573   1.437       .  S
C1569      C1570   1.406       .  A
C1569      H1574   1.084       .  S
C1570      C1571   1.414       .  A
C1571      C1572   1.408       .  A
C1571      N1575   1.438       .  S
C1572      H1576   1.083       .  S
N1573      O1583   1.263       .  A
N1573      O1584   1.263       .  A
N1575      O1581   1.263       .  A
N1575      O1582   1.263       .  A
C1585      C1586   1.405       .  A
C1585      C1590   1.407       .  A
C1585      H1595   1.083       .  S
C1586      C1591   1.493       .  S
C1586      C1587   1.413       .  A
C1587      C1588   1.406       .  A
C1587      N1592   1.440       .  S
C1588      C1589   1.410       .  A
C1588      H1593   1.083       .  S
C1589      C1590   1.418       .  A
C1590      N1594   1.433       .  S
C1591      C1596   1.416       .  A
C1591      C1600   1.403       .  A
N1592      O1607   1.263       .  A
N1592      O1608   1.263       .  A
N1594      O1605   1.262       .  A
N1594      O1606   1.262       .  A
C1596      C1597   1.407       .  A
C1596      N1601   1.439       .  S
C1597      C1598   1.408       .  A
C1597      H1602   1.084       .  S
C1598      C1599   1.420       .  A
C1599      C1600   1.406       .  A
C1599      N1603   1.436       .  S
C1600      H1604   1.084       .  S
N1601      O1611   1.263       .  A
N1601      O1612   1.263       .  A
N1603      O1609   1.263       .  A
N1603      O1610   1.263       .  A
C1613      C1614   1.399       .  A
C1613      C1618   1.400       .  A
C1613      H1623   1.084       .  S
C1614      C1619   1.477       .  S
C1614      C1615   1.411       .  A
C1615      C1616   1.403       .  A
C1615      N1620   1.437       .  S
C1616      C1617   1.407       .  A
C1616      H1621   1.083       .  S
C1617      C1618   1.417       .  A
C1618      N1622   1.430       .  S
C1619      C1624   1.407       .  A
C1619      C1628   1.402       .  A
N1620      O1635   1.262       .  A
N1620      O1636   1.263       .  A
N1622      O1633   1.262       .  A
N1622      O1634   1.262       .  A
C1624      C1625   1.399       .  A
C1624      N1629   1.432       .  S
C1625      C1626   1.405       .  A
C1625      H1630   1.084       .  S
C1626      C1627   1.416       .  A
C1627      C1628   1.405       .  A
C1627      N1631   1.440       .  S
C1628      H1632   1.083       .  S
N1629      O1639   1.262       .  A
N1629      O1640   1.262       .  A
N1631      O1637   1.263       .  A
N1631      O1638   1.263       .  A
C1641      C1642   1.397       .  A
C1641      C1646   1.391       .  A
C1641      H1651   1.084       .  S
C1642      C1647   1.474       .  S
C1642      C1643   1.414       .  A
C1643      C1644   1.403       .  A
C1643      N1648   1.437       .  S
C1644      C1645   1.403       .  A
C1644      H1649   1.083       .  S
C1645      C1646   1.417       .  A
C1646      N1650   1.436       .  S
C1647      C1652   1.413       .  A
C1647      C1656   1.401       .  A
N1648      O1663   1.263       .  A
N1648      O1664   1.263       .  A
N1650      O1661   1.262       .  A
N1650      O1662   1.263       .  A
C1652      C1653   1.398       .  A
C1652      N1657   1.439       .  S
C1653      C1654   1.403       .  A
C1653      H1658   1.083       .  S
C1654      C1655   1.416       .  A
C1655      C1656   1.399       .  A
C1655      N1659   1.438       .  S
C1656      H1660   1.083       .  S
N1657      O1667   1.263       .  A
N1657      O1668   1.263       .  A
N1659      O1665   1.263       .  A
N1659      O1666   1.263       .  A
C1669      C1670   1.400       .  A
C1669      C1674   1.401       .  A
C1669      H1679   1.084       .  S
C1670      C1675   1.490       .  S
C1670      C1671   1.418       .  A
C1671      C1672   1.414       .  A
C1671      N1676   1.439       .  S
C1672      C1673   1.406       .  A
C1672      H1677   1.083       .  S
C1673      C1674   1.418       .  A
C1674      N1678   1.437       .  S
C1675      C1680   1.409       .  A
C1675      C1684   1.402       .  A
N1676      O1691   1.262       .  A
N1676      O1692   1.263       .  A
N1678      O1689   1.262       .  A
N1678      O1690   1.263       .  A
C1680      C1681   1.406       .  A
C1680      N1685   1.431       .  S
C1681      C1682   1.411       .  A
C1681      H1686   1.083       .  S
C1682      C1683   1.417       .  A
C1683      C1684   1.405       .  A
C1683      N1687   1.429       .  S
C1684      H1688   1.084       .  S
N1685      O1695   1.262       .  A
N1685      O1696   1.262       .  A
N1687      O1693   1.262       .  A
N1687      O1694   1.262       .  A
