geometry optimzed in LAMMPS
_audit_creation_date              2020-12-01 
_audit_creation_method            'lammps2cif' 
_symmetry_space_group_name_H-M    'P1' 
_symmetry_Int_Tables_number       1 
_symmetry_cell_setting            triclinic 
loop_ 
_symmetry_equiv_pos_as_xyz 
  x,y,z 
_cell_length_a                    38.91239789 
_cell_length_b                    74.29656228805803 
_cell_length_c                    37.973415614491024 
_cell_angle_alpha                 89.70116909327126 
_cell_angle_beta                  89.8039937809251 
_cell_angle_gamma                 90.01948899346345 
loop_ 
_atom_site_label 
_atom_site_type_symbol 
_atom_site_fract_x 
_atom_site_fract_y 
_atom_site_fract_z 
_atom_site_charge 
Zr1        Zr  0.17180331  0.85261242  0.42309027     2.17500
O2          O  0.12629593  0.84344020  0.38288387    -0.52000
O3          O  0.16397362  0.82097520  0.43894028    -0.75200
O4          O  0.19249093  0.84756167  0.36215322    -0.82000
O5          O  0.10969023  0.87521615  0.48856481    -0.83700
O6          O  0.25048033  0.85146538  0.36045193    -0.79300
O7          O  0.11168291  0.86115188  0.43558721    -0.91000
O8          O  0.20127588  0.81298671  0.48197456    -0.76900
O9          O  0.22960042  0.84303517  0.43328406    -0.86400
O10         O  0.17725508  0.84901892  0.48553021    -0.86100
O11         O  0.20812024  0.87625459  0.40013090    -0.72900
O12         O  0.16056338  0.88145585  0.44863530    -0.85000
Zr13       Zr  0.25988053  0.89329958  0.49842555     2.26400
Zr14       Zr  0.26592645  0.86718498  0.41314501     2.06300
Zr15       Zr  0.16736588  0.87797838  0.51093264     2.10000
Zr16       Zr  0.23507199  0.83974437  0.49523255     1.78800
O17         O  0.13777545  0.90391538  0.53578234    -0.93800
O18         O  0.27873648  0.81877434  0.47463680    -0.41600
O19         O  0.22505162  0.86881151  0.51960193    -0.78200
O20         O  0.27243126  0.86366026  0.47527253    -0.96900
O21         O  0.25471697  0.89646158  0.43644273    -0.90200
O22         O  0.20168047  0.90211402  0.48850446    -0.93100
C23         C  0.17648900  0.80949115  0.46082965     1.00700
C24         C  0.09529324  0.86904695  0.46078076     1.13600
C25         C  0.22179804  0.84748881  0.34606084     1.04400
O26         O  0.30967113  0.84428562  0.40335367    -0.95200
O27         O  0.32349092  0.87736816  0.42664493    -0.91000
O28         O  0.32002870  0.89128326  0.47956558    -0.84100
C29         C  0.33709678  0.88538808  0.45297806     1.11000
O30         O  0.15761822  0.90853333  0.37621372    -0.97200
Zr31       Zr  0.19651655  0.90471154  0.42594471     1.88900
O32         O  0.25391615  0.92640429  0.49338889    -0.73900
O33         O  0.28218272  0.88645562  0.36376840    -0.53100
O34         O  0.22600561  0.91728875  0.37464891    -0.97800
O35         O  0.14699947  0.92373326  0.43859961    -0.55000
O36         O  0.22019199  0.93230474  0.44630675    -0.74400
C37         C  0.23860752  0.93735152  0.47213320     0.98000
O38         O  0.29986198  0.90628162  0.54074484    -0.63200
O39         O  0.13442434  0.85855512  0.55038755    -0.58000
O40         O  0.24928955  0.88931421  0.56112996    -0.94700
O41         O  0.19306030  0.88201968  0.56899412    -0.93100
O42         O  0.21533069  0.83003020  0.55329140    -0.93500
O43         O  0.27938692  0.83316446  0.53854356    -0.92200
C44         C  0.22343633  0.88526775  0.58071557     1.16800
H45         H  0.16075795  0.84057526  0.49505579     0.32800
H46         H  0.29557294  0.86004789  0.48100908     0.43600
H47         H  0.19547862  0.91303541  0.50062536     0.37100
H48         H  0.20517436  0.87818987  0.37517852     0.33600
H49         H  0.27010761  0.81433654  0.45177950     0.25400
H50         H  0.29068098  0.89768446  0.37466026     0.31300
H51         H  0.22401367  0.93051039  0.37708140     0.37200
H52         H  0.19461926  0.82264093  0.54892943     0.31700
H53         H  0.15144680  0.85357805  0.56712201     0.30600
H54         H  0.12939099  0.91080848  0.51515622     0.32300
H55         H  0.15226218  0.92953264  0.46136355     0.31200
H56         H  0.28929841  0.84505509  0.54436807     0.35200
H57         H  0.31689126  0.89674416  0.54602599     0.28000
H58         H  0.13365328  0.83170091  0.37320017     0.32200
H59         H  0.15843257  0.92150647  0.37011295     0.35000
H60         H  0.12034952  0.86692691  0.56461414     0.27700
H61         H  0.31288743  0.91562960  0.52765025     0.40500
H62         H  0.29682441  0.83282361  0.40166408     0.30600
H63         H  0.29876492  0.82639462  0.46845992     0.38200
H64         H  0.12815736  0.91520726  0.44414941     0.30100
H65         H  0.30300086  0.88074131  0.35379025     0.30100
H66         H  0.12736368  0.85195050  0.36274601     0.30400
Zr67       Zr  0.67072206  0.86454535  0.41380609     2.17500
O68         O  0.62362663  0.85951125  0.37260971    -0.52000
O69         O  0.66312282  0.83176161  0.41434220    -0.75200
O70         O  0.68811948  0.86679713  0.35129723    -0.82000
O71         O  0.61038905  0.87717204  0.49101590    -0.83700
O72         O  0.74557372  0.87205368  0.34963171    -0.79300
O73         O  0.61172575  0.87144944  0.43219339    -0.91000
O74         O  0.70318991  0.81894310  0.44962188    -0.76900
O75         O  0.72881382  0.85439770  0.41687422    -0.86400
O76         O  0.67810879  0.85298932  0.47220859    -0.86100
O77         O  0.70548906  0.89092200  0.40206814    -0.72900
O78         O  0.66041937  0.88896109  0.45358220    -0.85000
Zr79       Zr  0.76275455  0.89416162  0.50236588     2.26400
Zr80       Zr  0.76369103  0.88063333  0.40711927     2.06300
Zr81       Zr  0.66949329  0.87754230  0.51181633     2.10000
Zr82       Zr  0.73621870  0.84318795  0.47512539     1.78800
O83         O  0.64002844  0.90056033  0.54599748    -0.93800
O84         O  0.77766368  0.82345983  0.44654691    -0.41600
O85         O  0.72784006  0.86804138  0.51346586    -0.78200
O86         O  0.77318036  0.86856971  0.46469865    -0.96900
O87         O  0.75402764  0.90591289  0.44469312    -0.90200
O88         O  0.70397896  0.90359298  0.50120769    -0.93100
C89         C  0.67727670  0.81799214  0.42897299     1.00700
C90         C  0.59568280  0.87519875  0.46099385     1.13600
C91         C  0.71686410  0.86884949  0.33479066     1.04400
O92         O  0.80466728  0.86086725  0.37805884    -0.95200
O93         O  0.82282794  0.88596385  0.42268646    -0.91000
O94         O  0.82242167  0.89293895  0.48068694    -0.84100
C95         C  0.83816691  0.88963910  0.45152769     1.11000
O96         O  0.65803120  0.92491334  0.39512249    -0.97200
Zr97       Zr  0.69509160  0.91485537  0.44290889     1.88900
O98         O  0.75983501  0.92685289  0.51240703    -0.73900
O99         O  0.78093705  0.90579945  0.36968068    -0.53100
O100        O  0.72118566  0.93774311  0.40522539    -0.97800
O101        O  0.64226091  0.92884267  0.46406067    -0.55000
O102        O  0.71460017  0.93814081  0.48180799    -0.74400
C103        C  0.73893718  0.93960122  0.50415940     0.98000
O104        O  0.80533429  0.90012098  0.54798161    -0.63200
O105        O  0.63933196  0.85421567  0.54502598    -0.58000
O106        O  0.75305593  0.88485119  0.56306319    -0.94700
O107        O  0.69827322  0.87456177  0.56884695    -0.93100
O108        O  0.71352907  0.82779850  0.52702386    -0.93500
O109        O  0.78169193  0.83224673  0.51358442    -0.92200
C110        C  0.72837725  0.87797312  0.58118444     1.16800
H111        H  0.66196099  0.84352694  0.47787565     0.32800
H112        H  0.79615181  0.86388886  0.46727182     0.43600
H113        H  0.69883336  0.91219051  0.51945366     0.37100
H114        H  0.70131770  0.89580645  0.37887448     0.33600
H115        H  0.76831695  0.82144204  0.42267431     0.25400
H116        H  0.79587891  0.90031741  0.35149489     0.31300
H117        H  0.74545181  0.93843497  0.41284822     0.37200
H118        H  0.71901564  0.83579762  0.54702061     0.31700
H119        H  0.65743964  0.84573852  0.55275166     0.30600
H120        H  0.64599525  0.89793452  0.57081622     0.32300
H121        H  0.64499407  0.92950703  0.48993330     0.31200
H122        H  0.78571654  0.84223767  0.53023618     0.35200
H123        H  0.82152988  0.88984054  0.54754728     0.28000
H124        H  0.63067813  0.84912667  0.35801637     0.32200
H125        H  0.64487685  0.91405473  0.38839194     0.35000
H126        H  0.63176153  0.86022561  0.56693178     0.27700
H127        H  0.81886685  0.91057695  0.53948517     0.40500
H128        H  0.79580322  0.84857338  0.38250422     0.30600
H129        H  0.79822655  0.83106664  0.44260313     0.38200
H130        H  0.62409014  0.91969493  0.46057780     0.30100
H131        H  0.75983353  0.90928516  0.35686120     0.30100
H132        H  0.62356269  0.86996224  0.35631580     0.30400
Zr133      Zr  0.22147383  0.11615929  0.50066541     2.17500
O134        O  0.17472072  0.11315546  0.45834098    -0.52000
O135        O  0.21851279  0.08300080  0.50209176    -0.75200
O136        O  0.24093261  0.11282515  0.44041963    -0.82000
O137        O  0.15785749  0.13571441  0.56666205    -0.83700
O138        O  0.29905594  0.11530357  0.43719800    -0.79300
O139        O  0.16089900  0.12148599  0.51405096    -0.91000
O140        O  0.24902579  0.07308199  0.54915661    -0.76900
O141        O  0.27592149  0.10328053  0.51373302    -0.86400
O142        O  0.22181219  0.11048023  0.56242460    -0.86100
O143        O  0.26219965  0.13908825  0.48265601    -0.72900
O144        O  0.21360708  0.14521376  0.52741884    -0.85000
Zr145      Zr  0.31192811  0.14839442  0.58654638     2.26400
Zr146      Zr  0.31673040  0.12565862  0.49573771     2.06300
Zr147      Zr  0.21524954  0.13931806  0.58911286     2.10000
Zr148      Zr  0.27674402  0.09835868  0.57589689     1.78800
O149        O  0.18296632  0.16623605  0.60450355    -0.93800
O150        O  0.32359059  0.07718081  0.56581206    -0.41600
O151        O  0.26970806  0.12660032  0.60456547    -0.78200
O152        O  0.31925623  0.11967377  0.55809114    -0.96900
O153        O  0.31080563  0.15415919  0.52459320    -0.90200
O154        O  0.25734059  0.16164793  0.57404017    -0.93100
C155        C  0.23035153  0.07039269  0.52207586     1.00700
C156        C  0.14398705  0.12889623  0.53923551     1.13600
C157        C  0.26937714  0.11252174  0.42339084     1.04400
O158        O  0.34805018  0.09796297  0.48355196    -0.95200
O159        O  0.37471870  0.13230683  0.51489296    -0.91000
O160        O  0.37231827  0.14269245  0.57120645    -0.84100
C161        C  0.38886123  0.13738147  0.54368555     1.11000
O162        O  0.21768899  0.17723618  0.46614918    -0.97200
Zr163      Zr  0.25646056  0.16725489  0.51247321     1.88900
O164        O  0.32398278  0.18051466  0.58011911    -0.73900
O165        O  0.34647787  0.14404252  0.45193770    -0.53100
O166        O  0.28431218  0.17954732  0.46013017    -0.97800
O167        O  0.21494880  0.18996694  0.53071232    -0.55000
O168        O  0.29433355  0.19100838  0.53297754    -0.74400
C169        C  0.31592003  0.19301803  0.55813683     0.98000
O170        O  0.35718984  0.14796674  0.63085060    -0.63200
O171        O  0.18287368  0.12043410  0.63013141    -0.58000
O172        O  0.28942201  0.15335072  0.64685829    -0.94700
O173        O  0.23183012  0.14845745  0.64689594    -0.93100
O174        O  0.24253109  0.08535253  0.62345955    -0.93500
O175        O  0.30996598  0.09126199  0.62842654    -0.92200
C176        C  0.25983172  0.15259743  0.66236957     1.16800
H177        H  0.20350491  0.10237200  0.56919857     0.32800
H178        H  0.34097980  0.11424930  0.56415418     0.43600
H179        H  0.25386473  0.17254160  0.58737019     0.37100
H180        H  0.26041237  0.14214204  0.45801044     0.33600
H181        H  0.31694117  0.06615973  0.57895086     0.25400
H182        H  0.35950978  0.13535706  0.43740350     0.31300
H183        H  0.30921907  0.17818101  0.46462613     0.37200
H184        H  0.24883386  0.07243883  0.62383623     0.31700
H185        H  0.19920972  0.11734813  0.64915476     0.30600
H186        H  0.16502949  0.16200320  0.62114316     0.32300
H187        H  0.22754142  0.19791235  0.54706436     0.31200
H188        H  0.32652531  0.10131679  0.63051060     0.35200
H189        H  0.35633294  0.15993629  0.64216793     0.28000
H190        H  0.17869541  0.10159022  0.44612864     0.32200
H191        H  0.20580047  0.16614214  0.45852583     0.35000
H192        H  0.16609966  0.12866836  0.64127678     0.27700
H193        H  0.34949972  0.13935322  0.64924004     0.40500
H194        H  0.36958910  0.09878292  0.49723400     0.30600
H195        H  0.32153970  0.07379001  0.54073181     0.38200
H196        H  0.19829377  0.18342640  0.54578971     0.30100
H197        H  0.32814460  0.14857895  0.43621026     0.30100
H198        H  0.17860534  0.12258111  0.44021029     0.30400
Zr199      Zr  0.80838597  0.15347138  0.50168953     2.17500
O200        O  0.85345419  0.16007372  0.45856876    -0.52000
O201        O  0.81494819  0.18535938  0.51564503    -0.75200
O202        O  0.78692890  0.15980798  0.44147145    -0.82000
O203        O  0.87207646  0.13322562  0.56895470    -0.83700
O204        O  0.72999157  0.15317366  0.43996579    -0.79300
O205        O  0.86885959  0.14663228  0.51509348    -0.91000
O206        O  0.77781892  0.19275432  0.55945947    -0.76900
O207        O  0.75029779  0.16215353  0.51254623    -0.86400
O208        O  0.80317132  0.15777150  0.56397682    -0.86100
O209        O  0.77389089  0.12881752  0.48084688    -0.72900
O210        O  0.82119294  0.12528093  0.52963705    -0.85000
Zr211      Zr  0.72308135  0.11310776  0.58150813     2.26400
Zr212      Zr  0.71569906  0.13729337  0.49359405     2.06300
Zr213      Zr  0.81473129  0.12949636  0.59173904     2.10000
Zr214      Zr  0.74511950  0.16613373  0.57454727     1.78800
O215        O  0.84892832  0.10445036  0.61387275    -0.93800
O216        O  0.70021262  0.18639294  0.55367770    -0.41600
O217        O  0.75652392  0.13790823  0.60282333    -0.78200
O218        O  0.70932635  0.14193903  0.55554370    -0.96900
O219        O  0.72861627  0.10870594  0.51967044    -0.90200
O220        O  0.78130630  0.10468964  0.57164723    -0.93100
C221        C  0.80220058  0.19652990  0.53790473     1.00700
C222        C  0.88585720  0.13946077  0.54069415     1.13600
C223        C  0.75763743  0.15913060  0.42565889     1.04400
O224        O  0.67155324  0.15954284  0.48062858    -0.95200
O225        O  0.65878702  0.12674120  0.51027710    -0.91000
O226        O  0.66279147  0.11527903  0.56572106    -0.84100
C227        C  0.64553782  0.12023448  0.53862484     1.11000
O228        O  0.82492663  0.09696836  0.45871919    -0.97200
Zr229      Zr  0.78714739  0.10088967  0.50951651     1.88900
O230        O  0.72531044  0.08024340  0.57527156    -0.73900
O231        O  0.69960235  0.11779485  0.44500678    -0.53100
O232        O  0.75765822  0.08568686  0.46154804    -0.97800
O233        O  0.84030779  0.08489810  0.52287818    -0.55000
O234        O  0.76720291  0.07326779  0.53576935    -0.74400
C235        C  0.74407700  0.06897196  0.55828553     0.98000
O236        O  0.67613927  0.10415320  0.62068683    -0.63200
O237        O  0.84306946  0.15120453  0.62980920    -0.58000
O238        O  0.73927725  0.11230637  0.64357317    -0.94700
O239        O  0.79443087  0.12143667  0.65040615    -0.93100
O240        O  0.76587435  0.17581988  0.63186656    -0.93500
O241        O  0.70134509  0.17331394  0.61826958    -0.92200
C242        C  0.76561182  0.11572189  0.66273000     1.16800
H243        H  0.81934392  0.16654022  0.57265609     0.32800
H244        H  0.68623806  0.14568145  0.56119614     0.43600
H245        H  0.78756689  0.09406479  0.58489745     0.37100
H246        H  0.77701860  0.12705589  0.45586927     0.33600
H247        H  0.70362066  0.19767849  0.56698062     0.25400
H248        H  0.68875018  0.10717626  0.45631988     0.31300
H249        H  0.75949284  0.07267698  0.46698843     0.37200
H250        H  0.77546600  0.18800974  0.62795319     0.31700
H251        H  0.82548827  0.15455713  0.64749287     0.30600
H252        H  0.86164129  0.10942599  0.63415915     0.32300
H253        H  0.83823718  0.08147453  0.54802375     0.31200
H254        H  0.69084981  0.16156811  0.62444035     0.35200
H255        H  0.68434274  0.09331924  0.63341589     0.28000
H256        H  0.84778045  0.17199400  0.44834847     0.32200
H257        H  0.82510502  0.08387943  0.45391968     0.35000
H258        H  0.86018212  0.14408272  0.64315315     0.27700
H259        H  0.67440397  0.11365977  0.63880141     0.40500
H260        H  0.66507181  0.16451198  0.50385889     0.30600
H261        H  0.70696446  0.18952834  0.52924784     0.38200
H262        H  0.85842151  0.09426927  0.52247219     0.30100
H263        H  0.68037940  0.12416850  0.43333226     0.30100
H264        H  0.85021975  0.15138339  0.43915994     0.30400
Zr265      Zr  0.22112154  0.88344159  0.01151470     2.17500
O266        O  0.17363451  0.88768341  0.05290400    -0.52000
O267        O  0.22641691  0.91573992  0.02654566    -0.75200
O268        O  0.23544826  0.87490223  0.07157953    -0.82000
O269        O  0.15928891  0.87416419  0.93537142    -0.83700
O270        O  0.29111898  0.86590077  0.07551298    -0.79300
O271        O  0.16061061  0.88171817  0.99315906    -0.91000
O272        O  0.27347664  0.92652899  0.99831419    -0.76900
O273        O  0.28031238  0.89152993  0.00966002    -0.86400
O274        O  0.22943942  0.89784303  0.95592607    -0.86100
O275        O  0.25234268  0.85526782  0.01663908    -0.72900
O276        O  0.20815738  0.86092317  0.96826667    -0.85000
Zr277      Zr  0.30955072  0.85672461  0.91569580     2.26400
Zr278      Zr  0.31190696  0.86389185  0.01491637     2.06300
Zr279      Zr  0.21744377  0.87521464  0.91301757     2.10000
Zr280      Zr  0.28884777  0.90547043  0.95362478     1.78800
O281        O  0.17648815  0.85927683  0.87610272    -0.93800
O282        O  0.34310162  0.91792231  0.97427418    -0.41600
O283        O  0.27653096  0.88386712  0.90909786    -0.78200
O284        O  0.32231764  0.87888333  0.95961675    -0.96900
O285        O  0.29972964  0.84205342  0.97071474    -0.90200
O286        O  0.25048576  0.84805448  0.91647175    -0.93100
C287        C  0.24895020  0.92812739  0.02046918     1.00700
C288        C  0.14447530  0.87738965  0.96485760     1.13600
C289        C  0.26146360  0.86919025  0.08905688     1.04400
O290        O  0.35215150  0.88158622  0.04939349    -0.95200
O291        O  0.37060504  0.85800927  0.99519603    -0.91000
O292        O  0.36887634  0.85387886  0.93590998    -0.84100
C293        C  0.38518415  0.85514515  0.96526598     1.11000
O294        O  0.18909774  0.82277493  0.00128207    -0.97200
Zr295      Zr  0.24075399  0.83370794  0.97151680     1.88900
O296        O  0.31640975  0.82427061  0.91033656    -0.73900
O297        O  0.32840291  0.83524099  0.04135468    -0.53100
O298        O  0.25319871  0.81338864  0.02049606    -0.97800
O299        O  0.19941676  0.81887695  0.93310038    -0.55000
O300        O  0.27669265  0.81059621  0.94524742    -0.74400
C301        C  0.30283015  0.81021754  0.92453489     0.98000
O302        O  0.35612464  0.86327175  0.87429815    -0.63200
O303        O  0.19774869  0.90347664  0.88722229    -0.58000
O304        O  0.29139060  0.85858506  0.85390764    -0.94700
O305        O  0.23760881  0.87051946  0.85404772    -0.93100
O306        O  0.26088752  0.92984616  0.92157600    -0.93500
O307        O  0.32358850  0.91747778  0.90549263    -0.92200
C308        C  0.26416254  0.86430346  0.83830115     1.16800
H309        H  0.21469754  0.90823871  0.95352625     0.32800
H310        H  0.34579816  0.88293068  0.95772222     0.43600
H311        H  0.24544089  0.84009411  0.89713825     0.37100
H312        H  0.24679524  0.84874003  0.03790914     0.33600
H313        H  0.34157664  0.93098992  0.96926814     0.25400
H314        H  0.34646082  0.83835763  0.05858772     0.31300
H315        H  0.27144212  0.80522111  0.01190503     0.37200
H316        H  0.27102264  0.94098939  0.93127752     0.31700
H317        H  0.20382297  0.90264516  0.86194821     0.30600
H318        H  0.16296809  0.86883274  0.86429242     0.32300
H319        H  0.21336226  0.81205970  0.91588149     0.31200
H320        H  0.33714464  0.90706015  0.89711093     0.35200
H321        H  0.35584798  0.85345832  0.85675035     0.28000
H322        H  0.18269120  0.89538930  0.07195177     0.32200
H323        H  0.18996656  0.80947897  0.99972952     0.35000
H324        H  0.17235406  0.90262930  0.88774600     0.27700
H325        H  0.34906405  0.87422824  0.86123115     0.40500
H326        H  0.36486239  0.87260851  0.06365007     0.30600
H327        H  0.34179233  0.91701075  0.00027275     0.38200
H328        H  0.18878605  0.82870462  0.91920529     0.30100
H329        H  0.30842395  0.83159730  0.05594205     0.30100
H330        H  0.16968522  0.87578224  0.06409355     0.30400
Zr331      Zr  0.71708458  0.88859616  0.99326426     2.17500
O332        O  0.66517011  0.89696357  0.02551172    -0.52000
O333        O  0.72369218  0.92169045  0.99458153    -0.75200
O334        O  0.72842514  0.88972364  0.05569200    -0.82000
O335        O  0.65791032  0.86697710  0.92539448    -0.83700
O336        O  0.78529744  0.88466742  0.06445876    -0.79300
O337        O  0.65721959  0.88337119  0.97555140    -0.91000
O338        O  0.75913339  0.93083619  0.95037851    -0.76900
O339        O  0.77393904  0.89955617  0.98541392    -0.86400
O340        O  0.72378743  0.89404914  0.93191236    -0.86100
O341        O  0.75301639  0.86418165  0.01457475    -0.72900
O342        O  0.70891837  0.85967966  0.96632838    -0.85000
Zr343      Zr  0.81201031  0.85351422  0.91669982     2.26400
Zr344      Zr  0.81004041  0.87602467  0.00740912     2.06300
Zr345      Zr  0.71661388  0.86520409  0.90520990     2.10000
Zr346      Zr  0.78125578  0.90430258  0.92367966     1.78800
O347        O  0.68401761  0.83978503  0.88261412    -0.93800
O348        O  0.83205932  0.92221017  0.93701018    -0.41600
O349        O  0.77352219  0.87620171  0.89527540    -0.78200
O350        O  0.81986056  0.88207510  0.94556895    -0.96900
O351        O  0.80392078  0.84767540  0.97809153    -0.90200
O352        O  0.75524728  0.84182724  0.92343476    -0.93100
C353        C  0.73972407  0.93391717  0.97676136     1.00700
C354        C  0.64209039  0.87448132  0.95104537     1.13600
C355        C  0.75469532  0.88802619  0.07568612     1.04400
O356        O  0.84193875  0.90257708  0.02569988    -0.95200
O357        O  0.86939605  0.86889767  0.99345867    -0.91000
O358        O  0.87085083  0.85880199  0.93702468    -0.84100
C359        C  0.88556132  0.86374882  0.96573549     1.11000
O360        O  0.70171989  0.82758386  0.02549747    -0.97200
Zr361      Zr  0.74720852  0.83620285  0.98442832     1.88900
O362        O  0.82321373  0.82175343  0.92917010    -0.73900
O363        O  0.83640608  0.85780648  0.05352330    -0.53100
O364        O  0.76686673  0.82345266  0.04012218    -0.97800
O365        O  0.70525103  0.81614005  0.95770612    -0.55000
O366        O  0.78447617  0.81124607  0.96906075    -0.74400
C367        C  0.81091413  0.80928964  0.94916907     0.98000
O368        O  0.85410180  0.84873233  0.86990244    -0.63200
O369        O  0.69001058  0.88563844  0.86292121    -0.58000
O370        O  0.79623741  0.85120676  0.85373935    -0.94700
O371        O  0.73864213  0.85578558  0.84968717    -0.93100
O372        O  0.75081229  0.92064033  0.87763550    -0.93500
O373        O  0.81456754  0.90942664  0.87011843    -0.92200
C374        C  0.76792312  0.85217815  0.83614594     1.16800
H375        H  0.70717332  0.90276097  0.92372602     0.32800
H376        H  0.84237697  0.88713799  0.94158932     0.43600
H377        H  0.75235568  0.83111849  0.90944689     0.37100
H378        H  0.74816044  0.86068660  0.03855478     0.33600
H379        H  0.82885246  0.93361593  0.92383257     0.25400
H380        H  0.84580408  0.86661582  0.07045104     0.31300
H381        H  0.79204403  0.82212468  0.03734613     0.37200
H382        H  0.74094847  0.91114537  0.86251908     0.31700
H383        H  0.67802740  0.87766809  0.84614192     0.30600
H384        H  0.66472571  0.84521279  0.86935980     0.32300
H385        H  0.71776366  0.80964605  0.93893423     0.31200
H386        H  0.83594630  0.90242249  0.87355169     0.35200
H387        H  0.86696169  0.86019949  0.86783543     0.28000
H388        H  0.67053845  0.90862318  0.03673502     0.32200
H389        H  0.70200141  0.81425735  0.02630821     0.35000
H390        H  0.67124445  0.89166942  0.87598711     0.27700
H391        H  0.87084686  0.83996541  0.87947577     0.40500
H392        H  0.82443705  0.91217257  0.02803477     0.30600
H393        H  0.82927080  0.92559465  0.96204248     0.38200
H394        H  0.68926647  0.82424845  0.94506504     0.30100
H395        H  0.81692100  0.85208135  0.06612783     0.30100
H396        H  0.66316987  0.88828098  0.04529880     0.30400
Zr397      Zr  0.27252730  0.10236250  0.08155069     2.17500
O398        O  0.32048746  0.09212883  0.11778027    -0.52000
O399        O  0.26425893  0.06922046  0.07764281    -0.75200
O400        O  0.25700955  0.10031994  0.14345834    -0.82000
O401        O  0.33739824  0.11987604  0.01379494    -0.83700
O402        O  0.20170288  0.10928298  0.15034630    -0.79300
O403        O  0.33351196  0.10549663  0.06643924    -0.91000
O404        O  0.21714212  0.06441532  0.04425080    -0.76900
O405        O  0.21392132  0.09479737  0.07219857    -0.86400
O406        O  0.26696546  0.09777195  0.01985992    -0.86100
O407        O  0.24103232  0.12848946  0.10210228    -0.72900
O408        O  0.28689832  0.13091458  0.05472028    -0.85000
Zr409      Zr  0.18778922  0.14357702  0.00257618     2.26400
Zr410      Zr  0.18218574  0.12018306  0.09277261     2.06300
Zr411      Zr  0.28009918  0.12618349  0.99326593     2.10000
Zr412      Zr  0.20795190  0.09098464  0.01019486     1.78800
O413        O  0.32430774  0.14695066  0.97259264    -0.93800
O414        O  0.15180049  0.07650120  0.01407884    -0.41600
O415        O  0.22149131  0.11876053  0.98152071    -0.78200
O416        O  0.17379372  0.11535695  0.03059711    -0.96900
O417        O  0.19478619  0.14835893  0.06429519    -0.90200
O418        O  0.24648908  0.15153924  0.01139981    -0.93100
C419        C  0.24080938  0.05887027  0.06473188     1.00700
C420        C  0.35092319  0.11248823  0.04095879     1.13600
C421        C  0.23035143  0.10327960  0.16253740     1.04400
O422        O  0.14450912  0.09499141  0.10696445    -0.95200
O423        O  0.12501757  0.12992191  0.07687650    -0.91000
O424        O  0.12730804  0.14203110  0.02179892    -0.84100
C425        C  0.11075146  0.13671688  0.04943611     1.11000
O426        O  0.30073106  0.16267299  0.11251223    -0.97200
Zr427      Zr  0.25327662  0.15639965  0.07261597     1.88900
O428        O  0.18235788  0.17551010  0.01570031    -0.73900
O429        O  0.15759367  0.13921227  0.13845308    -0.53100
O430        O  0.23415916  0.16769374  0.12955638    -0.97800
O431        O  0.29790233  0.17598025  0.04832722    -0.55000
O432        O  0.22069372  0.18346881  0.05777732    -0.74400
C433        C  0.19570875  0.18700975  0.03681161     0.98000
O434        O  0.14660523  0.14714738  0.95467379    -0.63200
O435        O  0.29601513  0.10392226  0.94921693    -0.58000
O436        O  0.20902245  0.14998418  0.94221020    -0.94700
O437        O  0.26465597  0.14085337  0.93945452    -0.93100
O438        O  0.24164433  0.07257602  0.96989549    -0.93500
O439        O  0.17811753  0.08519527  0.95509929    -0.92200
C440        C  0.23787704  0.14789374  0.92572122     1.16800
H441        H  0.28229075  0.08835512  0.01209864     0.32800
H442        H  0.15048975  0.11174626  0.02569789     0.43600
H443        H  0.25239109  0.16223150  0.99784461     0.37100
H444        H  0.24561131  0.13113178  0.12646965     0.33600
H445        H  0.15613607  0.06366006  0.00877658     0.25400
H446        H  0.14778372  0.13076776  0.15607465     0.31300
H447        H  0.21069040  0.17235695  0.12536746     0.37200
H448        H  0.23520845  0.06000641  0.97568079     0.31700
H449        H  0.30253178  0.11103943  0.92811590     0.30600
H450        H  0.33697449  0.14026994  0.95415492     0.32300
H451        H  0.28648030  0.18331556  0.02989057     0.31200
H452        H  0.18050776  0.09646716  0.94129807     0.35200
H453        H  0.13267849  0.13598313  0.95482951     0.28000
H454        H  0.31251864  0.08087884  0.12927548     0.32200
H455        H  0.29950436  0.17574344  0.11738571     0.35000
H456        H  0.31795743  0.09877346  0.95770556     0.27700
H457        H  0.13060851  0.15680201  0.96202584     0.40500
H458        H  0.13259134  0.09863556  0.12887454     0.30600
H459        H  0.14600602  0.07661462  0.03948255     0.38200
H460        H  0.31335694  0.16782594  0.03523822     0.30100
H461        H  0.17763308  0.14465542  0.15034263     0.30100
H462        H  0.32256635  0.10095519  0.13712203     0.30400
Zr463      Zr  0.68213514  0.14529587  0.08794596     2.17500
O464        O  0.63496145  0.14776193  0.13011315    -0.52000
O465        O  0.66952799  0.17682228  0.07701579    -0.75200
O466        O  0.70166148  0.15309144  0.14788675    -0.82000
O467        O  0.62399743  0.12274142  0.02026979    -0.83700
O468        O  0.75982466  0.15054498  0.14996858    -0.79300
O469        O  0.62340001  0.13532480  0.07465382    -0.91000
O470        O  0.70620869  0.18782713  0.03568908    -0.76900
O471        O  0.73702665  0.15841414  0.07667060    -0.86400
O472        O  0.68592270  0.15028271  0.02559427    -0.86100
O473        O  0.72316650  0.12372441  0.10949974    -0.72900
O474        O  0.67648861  0.11648789  0.06069224    -0.85000
Zr475      Zr  0.77712766  0.11122473  0.00868318     2.26400
Zr476      Zr  0.77814250  0.13660381  0.09573651     2.06300
Zr477      Zr  0.68200111  0.12131371  0.99856713     2.10000
Zr478      Zr  0.74122818  0.16278798  0.01476915     1.78800
O479        O  0.65283843  0.09387088  0.98035721    -0.93800
O480        O  0.78171213  0.18644406  0.03052468    -0.41600
O481        O  0.73743089  0.13376018  0.98763477    -0.78200
O482        O  0.78311712  0.14105173  0.03350988    -0.96900
O483        O  0.77312521  0.10707945  0.07084225    -0.90200
O484        O  0.72132639  0.09912659  0.01939041    -0.93100
C485        C  0.68149996  0.18968228  0.05792954     1.00700
C486        C  0.60844226  0.12778284  0.04832482     1.13600
C487        C  0.73076393  0.15453875  0.16383263     1.04400
O488        O  0.81201078  0.16397749  0.10187692    -0.95200
O489        O  0.83708658  0.13118402  0.07971653    -0.91000
O490        O  0.83677520  0.11710358  0.02685167    -0.84100
C491        C  0.85239460  0.12449383  0.05290029     1.11000
O492        O  0.67756177  0.08916942  0.13026245    -0.97200
Zr493      Zr  0.71719919  0.09517015  0.08172007     1.88900
O494        O  0.77736526  0.07779140  0.01200197    -0.73900
O495        O  0.80538752  0.12021559  0.14382956    -0.53100
O496        O  0.74653854  0.08295135  0.13313657    -0.97800
O497        O  0.67252982  0.07358056  0.06613280    -0.55000
O498        O  0.74726776  0.06934248  0.06055435    -0.74400
C499        C  0.76522467  0.06572933  0.03329319     0.98000
O500        O  0.82071629  0.10312276  0.96506401    -0.63200
O501        O  0.64922372  0.13940818  0.95683013    -0.58000
O502        O  0.76277338  0.11186322  0.94618474    -0.94700
O503        O  0.70498936  0.11448088  0.94038765    -0.93100
O504        O  0.71388539  0.17257650  0.96034707    -0.93500
O505        O  0.78389279  0.17113690  0.97047138    -0.92200
C506        C  0.73528442  0.11238137  0.92749285     1.16800
H507        H  0.66779186  0.15805096  0.01718594     0.32800
H508        H  0.80509785  0.14624929  0.02745247     0.43600
H509        H  0.71718367  0.08811838  0.00670111     0.37100
H510        H  0.72071286  0.12174248  0.13452796     0.33600
H511        H  0.77372644  0.19725344  0.01754764     0.25400
H512        H  0.81981043  0.12929111  0.15579329     0.31300
H513        H  0.77105368  0.08603713  0.12957539     0.37200
H514        H  0.70829025  0.18542036  0.96415392     0.31700
H515        H  0.66635658  0.14398080  0.93964892     0.30600
H516        H  0.64966689  0.09515458  0.95460966     0.32300
H517        H  0.68053762  0.06786770  0.04408773     0.31200
H518        H  0.78589071  0.16042277  0.95520447     0.35200
H519        H  0.83413730  0.11421117  0.96031443     0.28000
H520        H  0.63653896  0.16006972  0.13985788     0.32200
H521        H  0.67950990  0.07610827  0.13521871     0.35000
H522        H  0.63546177  0.13056645  0.94347503     0.27700
H523        H  0.83683236  0.09481177  0.97704809     0.40500
H524        H  0.79551292  0.17326715  0.10979872     0.30600
H525        H  0.77656671  0.18914516  0.05547803     0.38200
H526        H  0.65269785  0.08104939  0.05883323     0.30100
H527        H  0.78660802  0.11757398  0.16073963     0.30100
H528        H  0.64092380  0.13962402  0.14990701     0.30400
Zr529      Zr  0.52791104  0.39224948  0.51027628     2.17500
O530        O  0.57766141  0.39943135  0.47341373    -0.52000
O531        O  0.52332175  0.42546596  0.50749139    -0.75200
O532        O  0.51527069  0.39126036  0.44765541    -0.82000
O533        O  0.58922326  0.37469502  0.58167542    -0.83700
O534        O  0.45922822  0.38429923  0.43906357    -0.79300
O535        O  0.58769390  0.38719208  0.52703833    -0.91000
O536        O  0.48780077  0.43534718  0.55082532    -0.76900
O537        O  0.47060559  0.40279856  0.51657842    -0.86400
O538        O  0.52152020  0.39944639  0.57107559    -0.86100
O539        O  0.49366190  0.36662331  0.49271954    -0.72900
O540        O  0.53750149  0.36451988  0.54205770    -0.85000
Zr541      Zr  0.43557680  0.35844729  0.59279373     2.26400
Zr542      Zr  0.43624119  0.37791628  0.49820359     2.06300
Zr543      Zr  0.53043627  0.37177705  0.60248597     2.10000
Zr544      Zr  0.46349064  0.40917080  0.57786289     1.78800
O545        O  0.56627630  0.34711351  0.62354085    -0.93800
O546        O  0.41490119  0.42868292  0.56414028    -0.41600
O547        O  0.47299791  0.38233641  0.61069884    -0.78200
O548        O  0.42632461  0.38561454  0.55902306    -0.96900
O549        O  0.44353291  0.35089306  0.53234885    -0.90200
O550        O  0.49294305  0.34743370  0.58757916    -0.93100
C551        C  0.50779537  0.43802146  0.52466629     1.00700
C552        C  0.60388379  0.38032295  0.55332442     1.13600
C553        C  0.48961933  0.38798177  0.42755111     1.04400
O554        O  0.40466936  0.40476067  0.48052024    -0.95200
O555        O  0.37809143  0.36937969  0.51245383    -0.91000
O556        O  0.37711713  0.35982897  0.56945619    -0.84100
C557        C  0.36236899  0.36382167  0.54013934     1.11000
O558        O  0.54904370  0.32967287  0.49219288    -0.97200
Zr559      Zr  0.50041719  0.33991944  0.52740594     1.88900
O560        O  0.42690695  0.32588586  0.58856588    -0.73900
O561        O  0.40807541  0.35839397  0.45567314    -0.53100
O562        O  0.47972173  0.32776133  0.47189873    -0.97800
O563        O  0.53796015  0.31765449  0.55490253    -0.55000
O564        O  0.46191536  0.31582173  0.54505971    -0.74400
C565        C  0.43797968  0.31346216  0.56793877     0.98000
O566        O  0.39218704  0.36010678  0.63923252    -0.63200
O567        O  0.55459253  0.39293845  0.64449140    -0.58000
O568        O  0.45115536  0.35663109  0.65567774    -0.94700
O569        O  0.50839861  0.36260894  0.65912192    -0.93100
O570        O  0.49217295  0.42536211  0.62494672    -0.93500
O571        O  0.42299210  0.41334106  0.62617108    -0.92200
C572        C  0.47942150  0.35842234  0.67302213     1.16800
H573        H  0.53771600  0.40859988  0.57809427     0.32800
H574        H  0.40325904  0.39011322  0.56216957     0.43600
H575        H  0.49648959  0.33720728  0.60293433     0.37100
H576        H  0.49886270  0.36243027  0.46933638     0.33600
H577        H  0.42312669  0.44107514  0.56860262     0.25400
H578        H  0.39472761  0.36662286  0.44034896     0.31300
H579        H  0.45468657  0.32614130  0.47543853     0.37200
H580        H  0.48069001  0.43724970  0.62554272     0.31700
H581        H  0.53462358  0.39719830  0.65836796     0.30600
H582        H  0.57065995  0.34974157  0.64865685     0.32300
H583        H  0.52457905  0.31242630  0.57467532     0.31200
H584        H  0.40869242  0.40231354  0.62616662     0.35200
H585        H  0.37889226  0.37119632  0.63429725     0.28000
H586        H  0.57058152  0.40969905  0.45837808     0.32200
H587        H  0.54321674  0.31724808  0.48499526     0.35000
H588        H  0.56777763  0.38534038  0.66114824     0.27700
H589        H  0.37603044  0.35008184  0.63477749     0.40500
H590        H  0.38393720  0.40483235  0.49570868     0.30600
H591        H  0.41248709  0.42803143  0.53824712     0.38200
H592        H  0.55624396  0.32479206  0.56632034     0.30100
H593        H  0.42668321  0.35374458  0.44038603     0.30100
H594        H  0.58033814  0.38918089  0.45703991     0.30400
Zr595      Zr  0.02998001  0.38699954  0.49370472     2.17500
O596        O  0.08010115  0.39192114  0.45594592    -0.52000
O597        O  0.02678185  0.41969293  0.48217056    -0.75200
O598        O  0.01661619  0.38264130  0.43208973    -0.82000
O599        O  0.09003959  0.37185353  0.56762505    -0.83700
O600        O  0.95949521  0.37715322  0.42584668    -0.79300
O601        O  0.08969328  0.38309508  0.51195303    -0.91000
O602        O  0.99001411  0.43137997  0.52221286    -0.76900
O603        O  0.97337893  0.39869689  0.49937435    -0.86400
O604        O  0.02509497  0.39694053  0.55309919    -0.86100
O605        O  0.99300842  0.36156281  0.48127439    -0.72900
O606        O  0.03877265  0.36055512  0.52965706    -0.85000
Zr607      Zr  0.93685470  0.35787728  0.58192144     2.26400
Zr608      Zr  0.93612159  0.37400990  0.48595670     2.06300
Zr609      Zr  0.03180383  0.37051332  0.58873887     2.10000
Zr610      Zr  0.96802894  0.40784847  0.55926895     1.78800
O611        O  0.07019944  0.34894122  0.61689810    -0.93800
O612        O  0.91843636  0.42611837  0.54328654    -0.41600
O613        O  0.97502399  0.38212835  0.59653822    -0.78200
O614        O  0.92900700  0.38419423  0.54565387    -0.96900
O615        O  0.94347557  0.34795851  0.52272626    -0.90200
O616        O  0.99351597  0.34596851  0.57761971    -0.93100
C617        C  0.00997205  0.43293503  0.49559149     1.00700
C618        C  0.10519127  0.37686722  0.53925434     1.13600
C619        C  0.99011433  0.37916967  0.41332096     1.04400
O620        O  0.90674503  0.40050983  0.46310809    -0.95200
O621        O  0.87663389  0.36885007  0.50474819    -0.91000
O622        O  0.87762349  0.36056273  0.56252678    -0.84100
C623        C  0.86167449  0.36454032  0.53393211     1.11000
O624        O  0.04723850  0.32481285  0.48270592    -0.97200
Zr625      Zr  0.00013508  0.33613834  0.51882838     1.88900
O626        O  0.92423724  0.32572542  0.57883506    -0.73900
O627        O  0.90629842  0.35316566  0.44732159    -0.53100
O628        O  0.98207337  0.32055378  0.46568091    -0.97800
O629        O  0.03756846  0.31566463  0.55134882    -0.55000
O630        O  0.95999006  0.31338427  0.53835869    -0.74400
C631        C  0.93478414  0.31246511  0.56007797     0.98000
O632        O  0.89051052  0.36124682  0.62496012    -0.63200
O633        O  0.05263808  0.39490572  0.62568331    -0.58000
O634        O  0.95508004  0.35502318  0.64348005    -0.94700
O635        O  0.01234588  0.36072921  0.64552459    -0.93100
O636        O  0.00063285  0.42571675  0.60113950    -0.93500
O637        O  0.93281874  0.41856466  0.60795491    -0.92200
C638        C  0.98376474  0.35642819  0.65995959     1.16800
H639        H  0.04209532  0.40601821  0.55830763     0.32800
H640        H  0.90653547  0.38937690  0.54911955     0.43600
H641        H  0.99678730  0.33624175  0.59424424     0.37100
H642        H  0.99721301  0.35600658  0.45882776     0.33600
H643        H  0.92529799  0.43865305  0.54856642     0.25400
H644        H  0.89705461  0.36074875  0.42804250     0.31300
H645        H  0.95667927  0.32019844  0.46713796     0.37200
H646        H  0.99734814  0.43833827  0.59335672     0.31700
H647        H  0.04812808  0.39091292  0.65017686     0.30600
H648        H  0.08095375  0.35561953  0.63649023     0.32300
H649        H  0.02262625  0.30962743  0.56895055     0.31200
H650        H  0.91871643  0.40802715  0.61490602     0.35200
H651        H  0.89098566  0.35028984  0.63992329     0.28000
H652        H  0.07372452  0.40189200  0.43984510     0.32200
H653        H  0.04515458  0.31152584  0.48336854     0.35000
H654        H  0.07796672  0.39448010  0.62329385     0.27700
H655        H  0.89747109  0.37122842  0.64058831     0.40500
H656        H  0.89742655  0.39669851  0.44009601     0.30600
H657        H  0.91768096  0.42565072  0.51725461     0.38200
H658        H  0.05270693  0.32358727  0.56531318     0.30100
H659        H  0.92474718  0.34598717  0.43615655     0.30100
H660        H  0.08183205  0.38118060  0.44069462     0.30400
Zr661      Zr  0.97696720  0.60576688  0.41811012     2.17500
O662        O  0.92788433  0.59613812  0.38301075    -0.52000
O663        O  0.98032380  0.57244278  0.42015067    -0.75200
O664        O  0.98902183  0.60677737  0.35517638    -0.82000
O665        O  0.91611896  0.62425532  0.48890811    -0.83700
O666        O  0.04469181  0.61472086  0.34628259    -0.79300
O667        O  0.91724704  0.61175172  0.43461151    -0.91000
O668        O  0.02972013  0.56520807  0.44827573    -0.76900
O669        O  0.03509149  0.59634293  0.42351608    -0.86400
O670        O  0.98491969  0.59841643  0.47869629    -0.86100
O671        O  0.01029387  0.63174537  0.39952221    -0.72900
O672        O  0.96622290  0.63334812  0.44943058    -0.85000
Zr673      Zr  0.06832892  0.64181200  0.49787725     2.26400
Zr674      Zr  0.06846770  0.62152429  0.40462334     2.06300
Zr675      Zr  0.97486688  0.62588494  0.50963369     2.10000
Zr676      Zr  0.04388942  0.59019389  0.48452638     1.78800
O677        O  0.93263944  0.64368462  0.54173528    -0.93800
O678        O  0.09722263  0.57388614  0.47375089    -0.41600
O679        O  0.03342931  0.61696297  0.51713011    -0.78200
O680        O  0.07941642  0.61449945  0.46571455    -0.96900
O681        O  0.05936368  0.64878123  0.43713383    -0.90200
O682        O  0.00981656  0.65135053  0.49329674    -0.93100
C683        C  0.00360706  0.56110729  0.42983317     1.00700
C684        C  0.90119381  0.61858652  0.46100141     1.13600
C685        C  0.01455172  0.61055503  0.33494471     1.04400
O686        O  0.10210859  0.59528134  0.38764058    -0.95200
O687        O  0.12644648  0.63013703  0.41909434    -0.91000
O688        O  0.12759007  0.64034904  0.47539279    -0.84100
C689        C  0.14236508  0.63597079  0.44625226     1.11000
O690        O  0.95280549  0.66593611  0.39526563    -0.97200
Zr691      Zr  0.00144088  0.65848853  0.43293488     1.88900
O692        O  0.07375237  0.67451734  0.49237171    -0.73900
O693        O  0.09561248  0.64039514  0.35980316    -0.53100
O694        O  0.01835973  0.67256942  0.37735657    -0.97800
O695        O  0.96040950  0.67849133  0.46156374    -0.55000
O696        O  0.03847531  0.68354639  0.44829655    -0.74400
C697        C  0.06221751  0.68649476  0.47091728     0.98000
O698        O  0.11164744  0.64515331  0.54375485    -0.63200
O699        O  0.95829309  0.60061920  0.54721830    -0.58000
O700        O  0.05281986  0.64162701  0.56086761    -0.94700
O701        O  0.99505333  0.63755659  0.56452596    -0.93100
O702        O  0.01282595  0.57127503  0.52645254    -0.93500
O703        O  0.07737425  0.58296058  0.53679652    -0.92200
C704        C  0.02439277  0.64059872  0.57833467     1.16800
H705        H  0.96943876  0.58888227  0.48574617     0.32800
H706        H  0.10262532  0.61028701  0.46914053     0.43600
H707        H  0.00538680  0.66156428  0.50828951     0.37100
H708        H  0.00481292  0.63586185  0.37611192     0.33600
H709        H  0.09249097  0.56139477  0.48162110     0.25400
H710        H  0.10533430  0.63186527  0.34246326     0.31300
H711        H  0.04313016  0.67529658  0.37992231     0.37200
H712        H  0.01891811  0.55879718  0.51986932     0.31700
H713        H  0.97074668  0.60257094  0.56956380     0.30600
H714        H  0.92555467  0.63603392  0.56193490     0.32300
H715        H  0.97452540  0.68714944  0.47497028     0.31200
H716        H  0.09176062  0.59375269  0.54075567     0.35200
H717        H  0.12620655  0.63424480  0.54233887     0.28000
H718        H  0.93617407  0.58585258  0.36885246     0.32200
H719        H  0.95329648  0.67919375  0.39245488     0.35000
H720        H  0.93385964  0.60282819  0.55312306     0.27700
H721        H  0.12666910  0.65519803  0.53603292     0.40500
H722        H  0.08508329  0.58631584  0.37954086     0.30600
H723        H  0.09892634  0.57305050  0.44779475     0.38200
H724        H  0.94905431  0.67095397  0.47977009     0.30100
H725        H  0.07640290  0.64637045  0.34734083     0.30100
H726        H  0.92374939  0.60590893  0.36568432     0.30400
Zr727      Zr  0.56995784  0.64944933  0.40307883     2.17500
O728        O  0.61935321  0.65405456  0.36430366    -0.52000
O729        O  0.57792327  0.68202119  0.40888818    -0.75200
O730        O  0.55405464  0.65023658  0.34033939    -0.82000
O731        O  0.62696535  0.63262311  0.47839180    -0.83700
O732        O  0.49576110  0.64984739  0.33721144    -0.79300
O733        O  0.62877440  0.64187038  0.42133617    -0.91000
O734        O  0.54020777  0.69307155  0.44895084    -0.76900
O735        O  0.51266572  0.66077959  0.40761989    -0.86400
O736        O  0.56179724  0.65694271  0.46371908    -0.86100
O737        O  0.53284966  0.62521171  0.38426470    -0.72900
O738        O  0.57780094  0.62226787  0.43642289    -0.85000
Zr739      Zr  0.47421265  0.61575445  0.48310926     2.26400
Zr740      Zr  0.47548849  0.63644994  0.39135016     2.06300
Zr741      Zr  0.56760437  0.62954711  0.49677956     2.10000
Zr742      Zr  0.50451710  0.66797769  0.46789406     1.78800
O743        O  0.59299208  0.60266840  0.52294054    -0.93800
O744        O  0.46642994  0.68974720  0.43970787    -0.41600
O745        O  0.51035619  0.64046919  0.50016607    -0.78200
O746        O  0.46620822  0.64408294  0.45176242    -0.96900
O747        O  0.48262480  0.60860126  0.42261316    -0.90200
O748        O  0.53184589  0.60500101  0.47920163    -0.93100
C749        C  0.56520595  0.69497704  0.42712049     1.00700
C750        C  0.64333504  0.63650463  0.44996919     1.13600
C751        C  0.52560815  0.65081161  0.32308786     1.04400
O752        O  0.43460444  0.65788553  0.36693094    -0.95200
O753        O  0.41592084  0.63136720  0.40649838    -0.91000
O754        O  0.41543037  0.61933484  0.46146165    -0.84100
C755        C  0.40020883  0.62532366  0.43379925     1.11000
O756        O  0.58382607  0.59158400  0.37389541    -0.97200
Zr757      Zr  0.54070578  0.59856993  0.41830966     1.88900
O758        O  0.47513094  0.58229514  0.48417621    -0.73900
O759        O  0.45809759  0.61421060  0.34794757    -0.53100
O760        O  0.51942566  0.58196400  0.36778436    -0.97800
O761        O  0.58616915  0.57942832  0.44172255    -0.55000
O762        O  0.50993162  0.57304365  0.43990831    -0.74400
C763        C  0.48919203  0.56989787  0.46526730     0.98000
O764        O  0.43013459  0.60734467  0.52618579    -0.63200
O765        O  0.59806205  0.64712538  0.54085458    -0.58000
O766        O  0.48340759  0.62089115  0.54588560    -0.94700
O767        O  0.53866815  0.62989102  0.55366509    -0.93100
O768        O  0.52450489  0.68070322  0.52309363    -0.93500
O769        O  0.45740025  0.67639770  0.50684977    -0.92200
C770        C  0.50833346  0.62631715  0.56526314     1.16800
H771        H  0.57845221  0.66564101  0.47169025     0.32800
H772        H  0.44357014  0.64898996  0.45558648     0.43600
H773        H  0.53554015  0.59463212  0.49415833     0.37100
H774        H  0.53683775  0.62150968  0.36027870     0.33600
H775        H  0.46865977  0.70081951  0.45393357     0.25400
H776        H  0.43459963  0.61785840  0.34097738     0.31300
H777        H  0.49543217  0.58606777  0.36477898     0.37200
H778        H  0.53860113  0.67106481  0.53388749     0.31700
H779        H  0.61482402  0.63862816  0.55130329     0.30600
H780        H  0.61626091  0.60183750  0.51246195     0.32300
H781        H  0.57661551  0.57410633  0.46361440     0.31200
H782        H  0.45500781  0.66606232  0.52325766     0.35200
H783        H  0.41474286  0.61789959  0.52842057     0.28000
H784        H  0.61414423  0.66501347  0.35037427     0.32200
H785        H  0.59513580  0.60325534  0.36879145     0.35000
H786        H  0.61223030  0.65588512  0.52748195     0.27700
H787        H  0.41599676  0.59793958  0.51484151     0.40500
H788        H  0.43397787  0.66783010  0.38416536     0.30600
H789        H  0.47772849  0.69280198  0.41704091     0.38200
H790        H  0.60406920  0.58789785  0.44987116     0.30100
H791        H  0.47238917  0.61673239  0.32687551     0.30100
H792        H  0.61876102  0.64404583  0.34718370     0.30400
Zr793      Zr  0.07765628  0.35334667  0.08028263     2.17500
O794        O  0.12386011  0.34859305  0.12275355    -0.52000
O795        O  0.08714834  0.32091770  0.07209786    -0.75200
O796        O  0.05841960  0.35135654  0.14207791    -0.82000
O797        O  0.13956455  0.37007381  0.00843566    -0.83700
O798        O  0.00151919  0.35802934  0.14418855    -0.79300
O799        O  0.13717209  0.36038993  0.06531965    -0.91000
O800        O  0.04870091  0.31058267  0.03228035    -0.76900
O801        O  0.01926586  0.34395376  0.07506108    -0.86400
O802        O  0.07100994  0.34516995  0.01986986    -0.86100
O803        O  0.04379509  0.37941519  0.09569078    -0.72900
O804        O  0.08879699  0.37979532  0.04563351    -0.85000
Zr805      Zr  0.98792738  0.38825611  0.99548060     2.26400
Zr806      Zr  0.98524381  0.37013221  0.08823071     2.06300
Zr807      Zr  0.08117671  0.37165161  0.98544625     2.10000
Zr808      Zr  0.01258293  0.33583778  0.01502510     1.78800
O809        O  0.11069467  0.39648149  0.95601880    -0.93800
O810        O  0.97102146  0.31676527  0.04561769    -0.41600
O811        O  0.02275328  0.36257421  0.98197975    -0.78200
O812        O  0.97623637  0.36109801  0.02869807    -0.96900
O813        O  0.99566787  0.39700663  0.05489339    -0.90200
O814        O  0.04677830  0.39728195  0.99926523    -0.93100
C815        C  0.07459061  0.30835286  0.05276427     1.00700
C816        C  0.15370363  0.36603738  0.03803656     1.13600
C817        C  0.02970160  0.35322632  0.15859762     1.04400
O818        O  0.94022114  0.35084479  0.11219393    -0.95200
O819        O  0.92676179  0.37791160  0.07346951    -0.91000
O820        O  0.92833080  0.38830973  0.01726624    -0.84100
C821        C  0.91211243  0.38396181  0.04566796     1.11000
O822        O  0.09304073  0.41548031  0.10588246    -0.97200
Zr823      Zr  0.05456057  0.40542482  0.05941269     1.88900
O824        O  0.99260245  0.42121268  0.98812256    -0.73900
O825        O  0.97356246  0.39441523  0.12941519    -0.53100
O826        O  0.02507571  0.42385029  0.10298699    -0.97800
O827        O  0.10728820  0.42010915  0.03934572    -0.55000
O828        O  0.03443284  0.43065424  0.02515811    -0.74400
C829        C  0.01245325  0.43346269  0.00073630     0.98000
O830        O  0.94564605  0.39339708  0.94916523    -0.63200
O831        O  0.11088377  0.35034397  0.94731726    -0.58000
O832        O  0.99853042  0.38118737  0.93432401    -0.94700
O833        O  0.05326333  0.37094311  0.92793523    -0.93100
O834        O  0.02849195  0.32279978  0.95856714    -0.93500
O835        O  0.96746072  0.32650459  0.97468838    -0.92200
C836        C  0.02326483  0.37482005  0.91582836     1.16800
H837        H  0.08723363  0.33615943  0.01226994     0.32800
H838        H  0.95288193  0.35711748  0.02524478     0.43600
H839        H  0.05251673  0.40674641  0.98276680     0.37100
H840        H  0.04788789  0.38291614  0.11977405     0.33600
H841        H  0.94857974  0.32281459  0.04227871     0.25400
H842        H  0.95853346  0.40286752  0.11637343     0.31300
H843        H  0.00841430  0.43116854  0.08943791     0.37200
H844        H  0.04669420  0.33083189  0.94918688     0.31700
H845        H  0.12565806  0.35786725  0.93189439     0.30600
H846        H  0.11794334  0.39158378  0.93296941     0.32300
H847        H  0.10194156  0.42485950  0.01558490     0.31200
H848        H  0.95500206  0.33774055  0.96883790     0.35200
H849        H  0.92900375  0.38333599  0.95097882     0.28000
H850        H  0.11787810  0.33750071  0.13599299     0.32200
H851        H  0.09185695  0.42880018  0.10541168     0.35000
H852        H  0.12717777  0.34382665  0.96275079     0.27700
H853        H  0.93264145  0.40424520  0.95626956     0.40500
H854        H  0.94787372  0.33845477  0.10679744     0.30600
H855        H  0.96952690  0.30567444  0.03135382     0.38200
H856        H  0.12373865  0.41019440  0.03499916     0.30100
H857        H  0.95832358  0.38895100  0.14746016     0.30100
H858        H  0.12200091  0.35848655  0.14004571     0.30400
Zr859      Zr  0.57870314  0.35831393  0.09353853     2.17500
O860        O  0.62669877  0.35267406  0.13334733    -0.52000
O861        O  0.58674143  0.32594738  0.08783942    -0.75200
O862        O  0.56202642  0.35809912  0.15642652    -0.82000
O863        O  0.63768830  0.37319336  0.01715895    -0.83700
O864        O  0.50379701  0.36036419  0.15924625    -0.79300
O865        O  0.63791547  0.36517976  0.07503243    -0.91000
O866        O  0.54514863  0.31458935  0.05265219    -0.76900
O867        O  0.52106296  0.34739558  0.08860752    -0.86400
O868        O  0.57127712  0.35071419  0.03286114    -0.86100
O869        O  0.54182360  0.38279401  0.11123722    -0.72900
O870        O  0.58868294  0.38506233  0.05942867    -0.85000
Zr871      Zr  0.48600000  0.39256282  0.01187645     2.26400
Zr872      Zr  0.48404871  0.37212984  0.10369219     2.06300
Zr873      Zr  0.57876147  0.37781348  0.99903128     2.10000
Zr874      Zr  0.51381056  0.34010948  0.02833097     1.78800
O875        O  0.60574691  0.40484962  0.97502002    -0.93800
O876        O  0.46792137  0.32125241  0.05201359    -0.41600
O877        O  0.52130555  0.36739884  0.99556946    -0.78200
O878        O  0.47581079  0.36443550  0.04325391    -0.96900
O879        O  0.49387529  0.39971546  0.07236472    -0.90200
O880        O  0.54382702  0.40273932  0.01630551    -0.93100
C881        C  0.57176778  0.31284325  0.07224393     1.00700
C882        C  0.65325825  0.36967166  0.04612962     1.13600
C883        C  0.53334044  0.35846623  0.17354890     1.04400
O884        O  0.44414543  0.34955252  0.12630248    -0.95200
O885        O  0.42480031  0.37895910  0.08764535    -0.91000
O886        O  0.42655466  0.38967579  0.03164380    -0.84100
C887        C  0.41017764  0.38458730  0.05936926     1.11000
O888        O  0.60123258  0.41315855  0.11656090    -0.97200
Zr889      Zr  0.55242905  0.40908817  0.07727706     1.88900
O890        O  0.48759204  0.42599925  0.01363939    -0.73900
O891        O  0.46660726  0.39368515  0.14843876    -0.53100
O892        O  0.53696635  0.42415724  0.13190220    -0.97800
O893        O  0.59389711  0.42970579  0.05053842    -0.55000
O894        O  0.51891684  0.43451636  0.06085912    -0.74400
C895        C  0.49977414  0.43807528  0.03455303     0.98000
O896        O  0.44477857  0.40212380  0.96714496    -0.63200
O897        O  0.60762067  0.36039163  0.95348268    -0.58000
O898        O  0.49563180  0.38682175  0.94908034    -0.94700
O899        O  0.55076298  0.37748193  0.94171547    -0.93100
O900        O  0.53897575  0.32425445  0.97858901    -0.93500
O901        O  0.47348886  0.33208656  0.98210854    -0.92200
C902        C  0.52061550  0.38109816  0.92988667     1.16800
H903        H  0.58765973  0.34175740  0.02530601     0.32800
H904        H  0.45299936  0.35981887  0.03914923     0.43600
H905        H  0.54768503  0.41311764  0.00143033     0.37100
H906        H  0.54553772  0.38664466  0.13514465     0.33600
H907        H  0.47245360  0.30915420  0.04221669     0.25400
H908        H  0.45187985  0.40247059  0.13590119     0.31300
H909        H  0.51178928  0.42256018  0.13399304     0.37200
H910        H  0.54710855  0.33391442  0.96254194     0.31700
H911        H  0.62519841  0.36864043  0.94356915     0.30600
H912        H  0.59190149  0.40799234  0.95403873     0.32300
H913        H  0.58212154  0.43518866  0.03006591     0.31200
H914        H  0.46732673  0.34371738  0.97094611     0.35200
H915        H  0.42868638  0.39191573  0.96412712     0.28000
H916        H  0.62047129  0.34170773  0.14686455     0.32200
H917        H  0.60500774  0.42631409  0.11793060     0.35000
H918        H  0.62085820  0.35102164  0.96614093     0.27700
H919        H  0.43086940  0.41174026  0.97817354     0.40500
H920        H  0.43385166  0.34403853  0.10513503     0.30600
H921        H  0.47322316  0.32001508  0.07738930     0.38200
H922        H  0.61163930  0.42178522  0.04012194     0.30100
H923        H  0.45054638  0.38690446  0.16384470     0.30100
H924        H  0.62638587  0.36256387  0.15073297     0.30400
Zr925      Zr  0.52368987  0.61551994  0.98605533     2.17500
O926        O  0.57367758  0.60755342  0.02160934    -0.52000
O927        O  0.51920875  0.58242051  0.99111305    -0.75200
O928        O  0.51298724  0.61833487  0.04881774    -0.82000
O929        O  0.58245943  0.63224887  0.91165707    -0.83700
O930        O  0.45587673  0.62251062  0.05715161    -0.79300
O931        O  0.58242696  0.62072839  0.96708264    -0.91000
O932        O  0.49965797  0.57187121  0.93928799    -0.76900
O933        O  0.46790551  0.60297143  0.98106943    -0.86400
O934        O  0.51819048  0.60704806  0.92597909    -0.86100
O935        O  0.48705925  0.64054275  0.00182593    -0.72900
O936        O  0.53064899  0.64303943  0.95250334    -0.85000
Zr937      Zr  0.42688554  0.64486451  0.90333703     2.26400
Zr938      Zr  0.43117136  0.62717488  0.99832167     2.06300
Zr939      Zr  0.52323286  0.63428443  0.89277977     2.10000
Zr940      Zr  0.46167939  0.59526481  0.92024166     1.78800
O941        O  0.55728563  0.65821096  0.86582185    -0.93800
O942        O  0.42502582  0.57151855  0.94413692    -0.41600
O943        O  0.46684537  0.62194305  0.88583516    -0.78200
O944        O  0.42180628  0.61785501  0.93835368    -0.96900
O945        O  0.43483967  0.65400342  0.96279532    -0.90200
O946        O  0.48303422  0.65772970  0.90626494    -0.93100
C947        C  0.51191896  0.56946396  0.97000010     1.00700
C948        C  0.59782195  0.62696961  0.93970694     1.13600
C949        C  0.48673605  0.62066358  0.06879359     1.04400
O950        O  0.40223315  0.60008943  0.01930567    -0.95200
O951        O  0.37160381  0.63238333  0.98435364    -0.91000
O952        O  0.36852931  0.64109638  0.92701316    -0.84100
C953        C  0.35466169  0.63667757  0.95666811     1.11000
O954        O  0.53330650  0.68083604  0.00319067    -0.97200
Zr955      Zr  0.49070443  0.66681034  0.96523147     1.88900
O956        O  0.41457071  0.67700245  0.90589791    -0.73900
O957        O  0.40287964  0.64665959  0.04093399    -0.53100
O958        O  0.46673492  0.68107854  0.01743224    -0.97800
O959        O  0.53201714  0.68606995  0.93460132    -0.55000
O960        O  0.45345761  0.69023647  0.94176918    -0.74400
C961        C  0.42720554  0.69080943  0.92142423     0.98000
O962        O  0.38293815  0.64316903  0.85775738    -0.63200
O963        O  0.54694882  0.61240945  0.85163009    -0.58000
O964        O  0.44239525  0.64671468  0.84058641    -0.94700
O965        O  0.50023492  0.64276079  0.83689719    -0.93100
O966        O  0.48377770  0.58287305  0.86535652    -0.93500
O967        O  0.41513982  0.58597210  0.88163499    -0.92200
C968        C  0.47087635  0.64594669  0.82321115     1.16800
H969        H  0.53573412  0.59851933  0.91931814     0.32800
H970        H  0.39942005  0.61241099  0.93598441     0.43600
H971        H  0.48532977  0.66771933  0.89004304     0.37100
H972        H  0.49170323  0.64547220  0.02473625     0.33600
H973        H  0.43493248  0.56016201  0.93507480     0.25400
H974        H  0.39574027  0.63860294  0.06048753     0.31300
H975        H  0.44161062  0.68123580  0.01341226     0.37200
H976        H  0.48389231  0.59307711  0.84848339     0.31700
H977        H  0.55966504  0.61970165  0.83400369     0.30600
H978        H  0.57021516  0.65232145  0.84656685     0.32300
H979        H  0.51875984  0.69236736  0.91605754     0.31200
H980        H  0.40228795  0.59717837  0.87650286     0.35200
H981        H  0.36952186  0.63212003  0.86282573     0.28000
H982        H  0.56599636  0.59765912  0.03734926     0.32200
H983        H  0.52868252  0.69393538  0.00177094     0.35000
H984        H  0.56512023  0.60598112  0.86483844     0.27700
H985        H  0.36699272  0.65326362  0.86252028     0.40500
H986        H  0.38202336  0.60453480  0.03256602     0.30600
H987        H  0.43002223  0.57126710  0.96967885     0.38200
H988        H  0.54714016  0.67766939  0.92167260     0.30100
H989        H  0.42155222  0.65409843  0.05089368     0.30100
H990        H  0.57777653  0.61788917  0.03742956     0.30400
Zr991      Zr  0.93000362  0.64506132  0.99956043     2.17500
O992        O  0.88155938  0.65131545  0.03865896    -0.52000
O993        O  0.92436543  0.67790867  0.99259942    -0.75200
O994        O  0.94498029  0.64439128  0.06317579    -0.82000
O995        O  0.87212494  0.63133949  0.92249847    -0.83700
O996        O  0.00198985  0.63819672  0.06826010    -0.79300
O997        O  0.87094399  0.64063868  0.97936012    -0.91000
O998        O  0.96206742  0.68748229  0.95090741    -0.76900
O999        O  0.98797375  0.65526574  0.99436166    -0.86400
O1000       O  0.93869595  0.65204781  0.93860389    -0.86100
O1001       O  0.96420813  0.61946621  0.01718826    -0.72900
O1002       O  0.91949137  0.61806498  0.96629076    -0.85000
Zr1003     Zr  0.02351100  0.60956974  0.91967867     2.26400
Zr1004     Zr  0.02246831  0.62982469  0.01104386     2.06300
Zr1005     Zr  0.93071038  0.62495867  0.90573402     2.10000
Zr1006     Zr  0.99650511  0.66197735  0.93351905     1.78800
O1007       O  0.90132898  0.59840393  0.88344986    -0.93800
O1008       O  0.03867796  0.68291705  0.95712057    -0.41600
O1009       O  0.98875388  0.63471127  0.90185959    -0.78200
O1010       O  0.03299220  0.63752871  0.95075226    -0.96900
O1011       O  0.01315990  0.60227397  0.97982880    -0.90200
O1012       O  0.96512775  0.59974323  0.92268418    -0.93100
C1013       C  0.93716645  0.69019504  0.97238433     1.00700
C1014       C  0.85612959  0.63629043  0.95035273     1.13600
C1015       C  0.97254615  0.64181940  0.08140523     1.04400
O1016       O  0.05535198  0.65489900  0.03466090    -0.95200
O1017       O  0.08199559  0.62396492  0.99672348    -0.91000
O1018       O  0.08246146  0.61240282  0.94160519    -0.84100
C1019       C  0.09773181  0.61812632  0.96936384     1.11000
O1020       O  0.91020228  0.58558654  0.02650665    -0.97200
Zr1021     Zr  0.95442093  0.59307161  0.98315678     1.88900
O1022       O  0.02465493  0.57626351  0.92326888    -0.73900
O1023       O  0.04574150  0.60826093  0.05322815    -0.53100
O1024       O  0.97927088  0.57701639  0.03311155    -0.97800
O1025       O  0.90701283  0.57556423  0.95909102    -0.55000
O1026       O  0.98102600  0.56682973  0.95879246    -0.74400
C1027       C  0.00665813  0.56388994  0.93858832     0.98000
O1028       O  0.06769865  0.60376644  0.87533737    -0.63200
O1029       O  0.90231081  0.64281266  0.86026808    -0.58000
O1030       O  0.01353219  0.61317584  0.85646474    -0.94700
O1031       O  0.95971938  0.62445574  0.84897193    -0.93100
O1032       O  0.97453370  0.67486314  0.87894913    -0.93500
O1033       O  0.04159692  0.66998467  0.89162831    -0.92200
C1034       C  0.98934948  0.61967411  0.83722631     1.16800
H1035       H  0.92262958  0.66102997  0.93038871     0.32800
H1036       H  0.05591764  0.64210751  0.94714725     0.43600
H1037       H  0.96123331  0.58957096  0.90747493     0.37100
H1038       H  0.95937939  0.61548180  0.04089509     0.33600
H1039       H  0.03031904  0.68573732  0.98111437     0.25400
H1040       H  0.05915569  0.61564481  0.06992445     0.31300
H1041       H  0.97525620  0.56409833  0.02832020     0.37200
H1042       H  0.96769195  0.66438204  0.86458188     0.31700
H1043       H  0.88188042  0.63572328  0.85337225     0.30600
H1044       H  0.87891620  0.60289502  0.87482960     0.32300
H1045       H  0.91447895  0.57210535  0.93512067     0.31200
H1046       H  0.05390834  0.65855966  0.88712293     0.35200
H1047       H  0.08240649  0.61465859  0.87472434     0.28000
H1048       H  0.88912208  0.66109002  0.05448433     0.32200
H1049       H  0.91082129  0.57231334  0.02897418     0.35000
H1050       H  0.89289432  0.65346889  0.87251770     0.27700
H1051       H  0.08245396  0.59412614  0.88514949     0.40500
H1052       H  0.07316109  0.65757584  0.01671776     0.30600
H1053       H  0.05963051  0.67562132  0.96095667     0.38200
H1054       H  0.88836086  0.58440878  0.95519106     0.30100
H1055       H  0.02565620  0.60402633  0.06704333     0.30100
H1056       H  0.87915737  0.64054832  0.05395907     0.30400
C1057       C  0.68966504  0.62478882  0.97230785    -0.11500
C1058       C  0.70771492  0.63278227  0.94421079     0.05700
C1059       C  0.68940063  0.63863735  0.91445850    -0.10300
C1060       C  0.65380313  0.63656130  0.91283368    -0.11900
C1061       C  0.63569186  0.62860211  0.94096269    -0.01700
C1062       C  0.65404744  0.62272888  0.97072953    -0.10800
C1063       C  0.74561587  0.63461487  0.94558410     0.05700
H1064       H  0.70256282  0.64503404  0.89256118     0.07600
H1065       H  0.64047478  0.64135682  0.88962224     0.11100
H1066       H  0.64095110  0.61652968  0.99288033     0.11300
H1067       H  0.70315112  0.61988394  0.99533255     0.07600
C1068       C  0.76217174  0.63959101  0.97692265    -0.11500
C1069       C  0.79804084  0.64053110  0.97845452    -0.10800
C1070       C  0.81806343  0.63647259  0.94866816    -0.01700
C1071       C  0.80132723  0.63192152  0.91711717    -0.11900
C1072       C  0.76558705  0.63098055  0.91562663    -0.10300
H1073       H  0.74736585  0.64274969  0.00027956     0.07600
H1074       H  0.81005167  0.64418999  0.00307969     0.11300
H1075       H  0.81583261  0.62875624  0.89356140     0.11100
H1076       H  0.75362607  0.62693146  0.89120553     0.07600
C1077       C  0.26556376  0.62752092  0.99286228    -0.11500
C1078       C  0.24497601  0.62937458  0.96275443     0.05700
C1079       C  0.26060606  0.63456784  0.93080459    -0.10300
C1080       C  0.29608761  0.63752400  0.92891651    -0.11900
C1081       C  0.31669944  0.63537771  0.95896613    -0.01700
C1082       C  0.30089281  0.63053724  0.99103397    -0.10800
C1083       C  0.20740918  0.62582749  0.96483372     0.05700
H1084       H  0.24540430  0.63638909  0.90723314     0.07600
H1085       H  0.30741123  0.64116675  0.90378344     0.11100
H1086       H  0.31590844  0.62865455  0.01472975     0.11300
H1087       H  0.25452295  0.62329108  0.01777249     0.07600
C1088       C  0.19012176  0.61729669  0.93706590    -0.11500
C1089       C  0.15470659  0.61419305  0.93898450    -0.10800
C1090       C  0.13577102  0.61947302  0.96880248    -0.01700
C1091       C  0.15322127  0.62772968  0.99680100    -0.11900
C1092       C  0.18852606  0.63091081  0.99478774    -0.10300
H1093       H  0.20397687  0.61295900  0.91384375     0.07600
H1094       H  0.14210473  0.60792264  0.91682456     0.11300
H1095       H  0.13947489  0.63221957  0.01999060     0.11100
H1096       H  0.20087133  0.63777002  0.01641984     0.07600
C1097       C  0.50809739  0.48848521  0.04413258    -0.11500
C1098       C  0.49766677  0.49483732  0.01103144     0.05700
C1099       C  0.48321931  0.48247410  0.98714910    -0.10300
C1100       C  0.48149218  0.46402353  0.99537715    -0.11900
C1101       C  0.49407035  0.45760604  0.02770606    -0.01700
C1102       C  0.50609864  0.47022692  0.05242482    -0.10800
C1103       C  0.50362481  0.51406537  0.00113059     0.05700
H1104       H  0.47405237  0.48699393  0.96171737     0.07600
H1105       H  0.47187302  0.45474315  0.97585126     0.11100
H1106       H  0.51577422  0.46592611  0.07781803     0.11300
H1107       H  0.51951334  0.49746968  0.06315712     0.07600
C1108       C  0.50031742  0.52789522  0.02620905    -0.11500
C1109       C  0.50596540  0.54591442  0.01680540    -0.10800
C1110       C  0.51454810  0.55054417  0.98201913    -0.01700
C1111       C  0.51904588  0.53672299  0.95725087    -0.11900
C1112       C  0.51383867  0.51871341  0.96672430    -0.10300
H1113       H  0.49221531  0.52488200  0.05288855     0.07600
H1114       H  0.50154314  0.55629971  0.03621373     0.11300
H1115       H  0.52557115  0.53991132  0.93017123     0.11100
H1116       H  0.51761146  0.50843573  0.94698072     0.07600
C1117       C  0.81973095  0.38227709  0.07804936    -0.11500
C1118       C  0.80129020  0.38125341  0.04630076     0.05700
C1119       C  0.81966452  0.38297428  0.01439071    -0.10300
C1120       C  0.85546037  0.38490159  0.01423346    -0.11900
C1121       C  0.87395094  0.38488317  0.04593482    -0.01700
C1122       C  0.85557122  0.38393255  0.07786599    -0.10800
C1123       C  0.76330569  0.37801541  0.04639418     0.05700
H1124       H  0.80664863  0.38210855  0.98932705     0.07600
H1125       H  0.86877732  0.38552944  0.98916899     0.11100
H1126       H  0.86897305  0.38410671  0.10281337     0.11300
H1127       H  0.80655024  0.38160174  0.10316401     0.07600
C1128       C  0.74749831  0.36734820  0.07271501    -0.11500
C1129       C  0.71185794  0.36443863  0.07271434    -0.10800
C1130       C  0.69123082  0.37188183  0.04607408    -0.01700
C1131       C  0.70709150  0.38224698  0.01949957    -0.11900
C1132       C  0.74246923  0.38539630  0.01982153    -0.10300
H1133       H  0.76266260  0.36106412  0.09320214     0.07600
H1134       H  0.70049591  0.35629599  0.09343367     0.11300
H1135       H  0.69200047  0.38837158  0.99873879     0.11100
H1136       H  0.75330712  0.39394428  0.99947418     0.07600
C1137       C  0.24559364  0.36310767  0.07098999    -0.11500
C1138       C  0.26247930  0.37552986  0.04877811     0.05700
C1139       C  0.24317703  0.38458406  0.02293306    -0.10300
C1140       C  0.20808969  0.38121208  0.01913236    -0.11900
C1141       C  0.19122493  0.36887670  0.04137106    -0.01700
C1142       C  0.21029794  0.35992003  0.06750091    -0.10800
C1143       C  0.30010848  0.37887068  0.05202832     0.05700
H1144       H  0.25507185  0.39451146  0.00585528     0.07600
H1145       H  0.19398885  0.38857865  0.99918443     0.11100
H1146       H  0.19800027  0.35031858  0.08502334     0.11300
H1147       H  0.25971359  0.35566083  0.09078816     0.07600
C1148       C  0.32028902  0.38191894  0.02179774    -0.11500
C1149       C  0.35569854  0.38457958  0.02448135    -0.10800
C1150       C  0.37207680  0.38399943  0.05743549    -0.01700
C1151       C  0.35189696  0.38129682  0.08778635    -0.11900
C1152       C  0.31629803  0.37884860  0.08512551    -0.10300
H1153       H  0.30891583  0.38172866  0.99582528     0.07600
H1154       H  0.37040818  0.38642213  0.00047431     0.11300
H1155       H  0.36367066  0.38084625  0.11357314     0.11100
H1156       H  0.30147699  0.37689874  0.10901761     0.07600
C1157       C  0.04004393  0.51896554  0.96609512    -0.11500
C1158       C  0.01800275  0.50710994  0.94801853     0.05700
C1159       C  0.99652680  0.51436475  0.92172741    -0.10300
C1160       C  0.99529400  0.53303219  0.91572412    -0.11900
C1161       C  0.01613298  0.54476954  0.93518564    -0.01700
C1162       C  0.03920313  0.53750262  0.95960617    -0.10800
C1163       C  0.01624449  0.48761712  0.95843980     0.05700
H1164       H  0.97969957  0.50572602  0.90672728     0.07600
H1165       H  0.97662648  0.53840063  0.89737075     0.11100
H1166       H  0.05456278  0.54632734  0.97585304     0.11300
H1167       H  0.05646681  0.51416347  0.98705781     0.07600
C1168       C  0.04560884  0.47896052  0.97167784    -0.11500
C1169       C  0.04375844  0.46151827  0.98515646    -0.10800
C1170       C  0.01270600  0.45184541  0.98515832    -0.01700
C1171       C  0.98346561  0.45997593  0.97044452    -0.11900
C1172       C  0.98513062  0.47777443  0.95752959    -0.10300
H1173       H  0.07027907  0.48567932  0.97188364     0.07600
H1174       H  0.06702403  0.45551327  0.99549486     0.11300
H1175       H  0.95922039  0.45282176  0.96994465     0.11100
H1176       H  0.96179865  0.48396976  0.94789931     0.07600
C1177       C  0.53471486  0.62981255  0.15348967    -0.11500
C1178       C  0.50798097  0.63414910  0.17689157     0.05700
C1179       C  0.47380309  0.63228419  0.16525709    -0.10300
C1180       C  0.46663500  0.62700638  0.13067410    -0.11900
C1181       C  0.49347244  0.62328815  0.10696019    -0.01700
C1182       C  0.52757393  0.62436609  0.11913516    -0.10800
C1183       C  0.51569297  0.64058757  0.21319501     0.05700
H1184       H  0.45248789  0.63502898  0.18280868     0.07600
H1185       H  0.44010320  0.62632221  0.12227183     0.11100
H1186       H  0.54902456  0.62173163  0.10167561     0.11300
H1187       H  0.56131501  0.63120713  0.16126082     0.07600
C1188       C  0.54376033  0.63361364  0.23222109    -0.11500
C1189       C  0.54920287  0.63853507  0.26728934    -0.10800
C1190       C  0.52641255  0.65029978  0.28426321    -0.01700
C1191       C  0.49952810  0.65804917  0.26481768    -0.11900
C1192       C  0.49443967  0.65339654  0.22959163    -0.10300
H1193       H  0.56049562  0.62359346  0.22071098     0.07600
H1194       H  0.56957592  0.63200246  0.28193628     0.11300
H1195       H  0.48144489  0.66706729  0.27740027     0.11100
H1196       H  0.47321528  0.65946650  0.21552261     0.07600
C1197       C  0.50653941  0.64970440  0.73176985    -0.11500
C1198       C  0.47932210  0.64332493  0.71106595     0.05700
C1199       C  0.44718066  0.64027182  0.72738013    -0.10300
C1200       C  0.44315766  0.64245923  0.76386460    -0.11900
C1201       C  0.47116456  0.64782856  0.78447944    -0.01700
C1202       C  0.50235806  0.65217158  0.76773546    -0.10800
C1203       C  0.48547501  0.63916255  0.67318009     0.05700
H1204       H  0.42538526  0.63574374  0.71218283     0.07600
H1205       H  0.41885743  0.63898350  0.77611649     0.11100
H1206       H  0.52443058  0.65648152  0.78284450     0.11300
H1207       H  0.53185399  0.65193653  0.72072700     0.07600
C1208       C  0.51000750  0.64901698  0.65372290    -0.11500
C1209       C  0.51810370  0.64433530  0.61921004    -0.10800
C1210       C  0.50109852  0.63006345  0.60268783    -0.01700
C1211       C  0.47592444  0.62042785  0.62149980    -0.11900
C1212       C  0.46850691  0.62477165  0.65657775    -0.10300
H1213       H  0.52293396  0.66051841  0.66496254     0.07600
H1214       H  0.53704784  0.65227024  0.60504705     0.11300
H1215       H  0.46235386  0.60939596  0.60922895     0.11100
H1216       H  0.44995179  0.61663762  0.67077544     0.07600
C1217       C  0.80992168  0.61986025  0.42531743    -0.11500
C1218       C  0.79121609  0.62578178  0.45479444     0.05700
C1219       C  0.80888569  0.62896892  0.48637508    -0.10300
C1220       C  0.84440777  0.62645480  0.48839389    -0.11900
C1221       C  0.86323921  0.62058178  0.45892242    -0.01700
C1222       C  0.84551676  0.61722359  0.42737805    -0.10800
C1223       C  0.75337008  0.62849482  0.45293646     0.05700
H1224       H  0.79527818  0.63369997  0.50946359     0.07600
H1225       H  0.85712098  0.62921394  0.51311160     0.11100
H1226       H  0.85916589  0.61272196  0.40414434     0.11300
H1227       H  0.79694852  0.61708368  0.40075588     0.07600
C1228       C  0.73807258  0.63698237  0.42370523    -0.11500
C1229       C  0.70239553  0.63970945  0.42253073    -0.10800
C1230       C  0.68129334  0.63399532  0.45059775    -0.01700
C1231       C  0.69676872  0.62540584  0.47965325    -0.11900
C1232       C  0.73223969  0.62270467  0.48079303    -0.10300
H1233       H  0.75377486  0.64174994  0.40198493     0.07600
H1234       H  0.69140035  0.64636422  0.39977585     0.11300
H1235       H  0.68143501  0.62059198  0.50161381     0.11100
H1236       H  0.74312610  0.61586639  0.50340647     0.07600
C1237       C  0.23655861  0.63846463  0.47154231    -0.11500
C1238       C  0.25261460  0.63357687  0.43976159     0.05700
C1239       C  0.23234676  0.63070821  0.40987394    -0.10300
C1240       C  0.19671958  0.63219895  0.41186476    -0.11900
C1241       C  0.18037988  0.63656724  0.44384233    -0.01700
C1242       C  0.20075055  0.63997701  0.47357812    -0.10800
C1243       C  0.29031065  0.63106653  0.43779469     0.05700
H1244       H  0.24397556  0.62676751  0.38513446     0.07600
H1245       H  0.18194371  0.62945350  0.38838240     0.11100
H1246       H  0.18903673  0.64335490  0.49859229     0.11300
H1247       H  0.25171283  0.64100748  0.49486182     0.07600
C1248       C  0.30901119  0.63759099  0.40871916    -0.11500
C1249       C  0.34457008  0.63528226  0.40694789    -0.10800
C1250       C  0.36220848  0.62635752  0.43421471    -0.01700
C1251       C  0.34334157  0.61957016  0.46299399    -0.11900
C1252       C  0.30777192  0.62189371  0.46473921    -0.10300
H1253       H  0.29621664  0.64481693  0.38767468     0.07600
H1254       H  0.35828630  0.64084456  0.38453747     0.11300
H1255       H  0.35607704  0.61262875  0.48442282     0.11100
H1256       H  0.29386486  0.61643220  0.48711629     0.07600
C1257       C  0.95517130  0.62269600  0.17132900    -0.11500
C1258       C  0.98295243  0.62976962  0.19055844     0.05700
C1259       C  0.00327283  0.64324711  0.17475420    -0.10300
C1260       C  0.99752454  0.64858908  0.13991920    -0.11900
C1261       C  0.97095422  0.64084258  0.12018079    -0.01700
C1262       C  0.94918387  0.62822743  0.13650108    -0.10800
C1263       C  0.99131228  0.62292925  0.22657862     0.05700
H1264       H  0.02431694  0.64932564  0.18898931     0.07600
H1265       H  0.01506203  0.65808896  0.12768265     0.11100
H1266       H  0.92932374  0.62157693  0.12144921     0.11300
H1267       H  0.93917542  0.61218302  0.18249893     0.07600
C1268       C  0.96503094  0.61859489  0.25058416    -0.11500
C1269       C  0.97284263  0.61333536  0.28504680    -0.10800
C1270       C  0.00718354  0.61241428  0.29665220    -0.01700
C1271       C  0.03355239  0.61594757  0.27221268    -0.11900
C1272       C  0.02570821  0.62105290  0.23756287    -0.10300
H1273       H  0.93830554  0.61998721  0.24322265     0.07600
H1274       H  0.95173166  0.61090920  0.30310046     0.11300
H1275       H  0.06023368  0.61534830  0.28014802     0.11100
H1276       H  0.04665332  0.62381473  0.21949130     0.07600
C1277       C  0.04912011  0.63308475  0.67374050    -0.11500
C1278       C  0.01764396  0.63656011  0.69087998     0.05700
C1279       C  0.99021346  0.64338989  0.67090615    -0.10300
C1280       C  0.99360332  0.64602629  0.63475206    -0.11900
C1281       C  0.02441357  0.64174939  0.61726018    -0.01700
C1282       C  0.05249878  0.63569733  0.63722247    -0.10800
C1283       C  0.01236207  0.63248521  0.72900107     0.05700
H1284       H  0.96540871  0.64593975  0.68286575     0.07600
H1285       H  0.97137803  0.65063847  0.62015602     0.11100
H1286       H  0.07638977  0.63206490  0.62439716     0.11300
H1287       H  0.07089853  0.62801651  0.68841185     0.07600
C1288       C  0.02685043  0.61707393  0.74484318    -0.11500
C1289       C  0.01945895  0.61271554  0.78007027    -0.10800
C1290       C  0.99687736  0.62347326  0.79977135    -0.01700
C1291       C  0.98283962  0.63894130  0.78411184    -0.11900
C1292       C  0.99080027  0.64350830  0.74939779    -0.10300
H1293       H  0.04323133  0.60816113  0.72982804     0.07600
H1294       H  0.03086600  0.60080526  0.79171332     0.11300
H1295       H  0.96617068  0.64777775  0.79902052     0.11100
H1296       H  0.97994656  0.65573619  0.73852192     0.07600
C1297       C  0.05025069  0.36074958  0.25403500    -0.11500
C1298       C  0.01767681  0.35794367  0.26952471     0.05700
C1299       C  0.99155618  0.35027482  0.24911202    -0.10300
C1300       C  0.99681814  0.34702050  0.21340680    -0.11900
C1301       C  0.02836196  0.35127878  0.19725185    -0.01700
C1302       C  0.05559222  0.35736786  0.21817229    -0.10800
C1303       C  0.01037649  0.36375369  0.30621514     0.05700
H1304       H  0.96657808  0.34737119  0.26043526     0.07600
H1305       H  0.97545131  0.34215887  0.19789787     0.11100
H1306       H  0.08004641  0.36091956  0.20631619     0.11300
H1307       H  0.07100219  0.36662556  0.26901307     0.07600
C1308       C  0.03554005  0.36198439  0.33230888    -0.11500
C1309       C  0.02895875  0.36763571  0.36658990    -0.10800
C1310       C  0.99686717  0.37499574  0.37591312    -0.01700
C1311       C  0.97148973  0.37671713  0.35001950    -0.11900
C1312       C  0.97832305  0.37133552  0.31537412    -0.10300
H1313       H  0.06017141  0.35590529  0.32644058     0.07600
H1314       H  0.04880322  0.36566595  0.38616669     0.11300
H1315       H  0.94652976  0.38224648  0.35652843     0.11100
H1316       H  0.95855408  0.37322114  0.29571273     0.07600
C1317       C  0.02027906  0.35174096  0.75071754    -0.11500
C1318       C  0.99221153  0.35645931  0.77207146     0.05700
C1319       C  0.95973457  0.35873218  0.75633755    -0.10300
C1320       C  0.95604771  0.35742654  0.71973603    -0.11900
C1321       C  0.98478765  0.35383373  0.69846577    -0.01700
C1322       C  0.01654577  0.35029364  0.71451706    -0.10800
C1323       C  0.99802507  0.36033455  0.80990133     0.05700
H1324       H  0.93743787  0.36205672  0.77213351     0.07600
H1325       H  0.93128012  0.36022817  0.70799724     0.11100
H1326       H  0.03915602  0.34734678  0.69884862     0.11300
H1327       H  0.04578336  0.35016525  0.76157605     0.07600
C1328       C  0.02338766  0.35087350  0.82875389    -0.11500
C1329       C  0.03235963  0.35602066  0.86271179    -0.10800
C1330       C  0.01551030  0.37041798  0.87900242    -0.01700
C1331       C  0.98909244  0.37942042  0.86095244    -0.11900
C1332       C  0.98066105  0.37455331  0.82657745    -0.10300
H1333       H  0.03656232  0.33950689  0.81719594     0.07600
H1334       H  0.05199083  0.34846613  0.87652292     0.11300
H1335       H  0.97532767  0.39041215  0.87322754     0.11100
H1336       H  0.96130662  0.38228941  0.81278906     0.07600
C1337       C  0.02489650  0.47186977  0.43075831    -0.11500
C1338       C  0.00567801  0.48564325  0.44697979     0.05700
C1339       C  0.99055520  0.48216850  0.47983435    -0.10300
C1340       C  0.99348685  0.46535253  0.49573023    -0.11900
C1341       C  0.01144689  0.45122859  0.47927086    -0.01700
C1342       C  0.02752491  0.45472383  0.44664249    -0.10800
C1343       C  0.00268405  0.50409176  0.43176299     0.05700
H1344       H  0.97662645  0.49261136  0.49364292     0.07600
H1345       H  0.98096407  0.46341567  0.52097605     0.11100
H1346       H  0.04147099  0.44418376  0.43315816     0.11300
H1347       H  0.03727240  0.47426871  0.40558530     0.07600
C1348       C  0.03209320  0.51328761  0.42010797    -0.11500
C1349       C  0.03115949  0.53194803  0.41516954    -0.10800
C1350       C  0.00079969  0.54175504  0.42158113    -0.01700
C1351       C  0.97047943  0.53233959  0.42921059    -0.11900
C1352       C  0.97143551  0.51364571  0.43430992    -0.10300
H1353       H  0.05649646  0.50636826  0.41796341     0.07600
H1354       H  0.05496338  0.53894929  0.40934802     0.11300
H1355       H  0.94689732  0.53956228  0.43466951     0.11100
H1356       H  0.94821040  0.50682395  0.44276774     0.07600
C1357       C  0.69569792  0.38247950  0.51843008    -0.11500
C1358       C  0.71324508  0.37147702  0.54270073     0.05700
C1359       C  0.69448220  0.36363883  0.57053913    -0.10300
C1360       C  0.65930650  0.36688487  0.57433730    -0.11900
C1361       C  0.64171862  0.37791157  0.55018213    -0.01700
C1362       C  0.66034400  0.38562091  0.52206537    -0.10800
C1363       C  0.75113012  0.36871117  0.53997326     0.05700
H1364       H  0.70693631  0.35481321  0.58933630     0.07600
H1365       H  0.64578014  0.36045865  0.59597227     0.11100
H1366       H  0.64764379  0.39413220  0.50288714     0.11300
H1367       H  0.70939040  0.38893573  0.49695139     0.07600
C1368       C  0.76762778  0.36706770  0.50707293    -0.11500
C1369       C  0.80347274  0.36534878  0.50491996    -0.10800
C1370       C  0.82355019  0.36506726  0.53563052    -0.01700
C1371       C  0.80691728  0.36626026  0.56847648    -0.11900
C1372       C  0.77129145  0.36814655  0.57059957    -0.10300
H1373       H  0.75284353  0.36713816  0.48297542     0.07600
H1374       H  0.81547582  0.36433995  0.47923487     0.11300
H1375       H  0.82152832  0.36630261  0.59269610     0.11100
H1376       H  0.75966100  0.36969722  0.59634327     0.07600
C1377       C  0.27160500  0.36652390  0.50516802    -0.11500
C1378       C  0.25229161  0.36612435  0.53648458     0.05700
C1379       C  0.26948047  0.36359220  0.56867549    -0.10300
C1380       C  0.30511149  0.36191698  0.56966047    -0.11900
C1381       C  0.32450501  0.36303416  0.53853928    -0.01700
C1382       C  0.30735621  0.36507427  0.50619296    -0.10800
C1383       C  0.21447501  0.36867762  0.53599322     0.05700
H1384       H  0.25556565  0.36352818  0.59339883     0.07600
H1385       H  0.31752193  0.36050563  0.59500740     0.11100
H1386       H  0.32159073  0.36588222  0.48167300     0.11300
H1387       H  0.25915687  0.36807108  0.47988055     0.07600
C1388       C  0.19883245  0.38063015  0.51199506    -0.11500
C1389       C  0.16325668  0.38340049  0.51280174    -0.10800
C1390       C  0.14283531  0.37447175  0.53795558    -0.01700
C1391       C  0.15852795  0.36251403  0.56174255     0.02500
C1392       C  0.19375928  0.35950962  0.56051617    -0.10300
H1393       H  0.21409536  0.38810574  0.49304633     0.07600
H1394       H  0.15183026  0.39267612  0.49412419     0.11300
H1395       H  0.14347239  0.35516249  0.58107452     0.11100
H1396       H  0.20469635  0.34985664  0.57874433     0.07600
C1397       C  0.47916156  0.37916800  0.32962418    -0.11500
C1398       C  0.51348661  0.37587830  0.31929115     0.05700
C1399       C  0.53962841  0.37884324  0.34396351    -0.10300
C1400       C  0.53166999  0.38409030  0.37828439    -0.11900
C1401       C  0.49728527  0.38619506  0.38931171    -0.01700
C1402       C  0.47111583  0.38406433  0.36431721    -0.10800
C1403       C  0.52180026  0.36901312  0.28329406     0.05700
H1404       H  0.56627469  0.37637351  0.33733862     0.07600
H1405       H  0.55262868  0.38548849  0.39673263     0.11100
H1406       H  0.44441422  0.38568268  0.37178249     0.11300
H1407       H  0.45833079  0.37766724  0.31105914     0.07600
C1408       C  0.49861843  0.35763414  0.26585274    -0.11500
C1409       C  0.50419771  0.35272190  0.23088281    -0.10800
C1410       C  0.53338936  0.35878424  0.21248393    -0.01700
C1411       C  0.55819538  0.36881953  0.23063385    -0.11900
C1412       C  0.55238529  0.37397518  0.26565172    -0.10300
H1413       H  0.47550805  0.35290318  0.27885643     0.07600
H1414       H  0.48465387  0.34494426  0.21755722     0.11300
H1415       H  0.58067667  0.37392322  0.21695126     0.11100
H1416       H  0.57096207  0.38270137  0.27807831     0.07600
C1417       C  0.45808750  0.36618679  0.76913512    -0.11500
C1418       C  0.48980606  0.36195928  0.78512067     0.05700
C1419       C  0.51530511  0.35373151  0.76438998    -0.10300
C1420       C  0.51027974  0.35103898  0.72844525    -0.11900
C1421       C  0.47976351  0.35659790  0.71194396    -0.01700
C1422       C  0.45310065  0.36352599  0.73286886    -0.10800
C1423       C  0.49727647  0.36693823  0.82250473     0.05700
H1424       H  0.54012259  0.35032850  0.77531696     0.07600
H1425       H  0.53126902  0.34557415  0.71302646     0.11100
H1426       H  0.42935981  0.36799725  0.72087092     0.11300
H1427       H  0.43747328  0.37208858  0.78439537     0.07600
C1428       C  0.48362069  0.38276345  0.83740079    -0.11500
C1429       C  0.49133095  0.38757595  0.87218388    -0.10800
C1430       C  0.51361324  0.37694376  0.89250815    -0.01700
C1431       C  0.52778088  0.36137051  0.87756127    -0.11900
C1432       C  0.51942844  0.35631334  0.84323447    -0.10300
H1433       H  0.46726238  0.39157767  0.82208790     0.07600
H1434       H  0.48016789  0.39968793  0.88309755     0.11300
H1435       H  0.54454659  0.35274762  0.89289445     0.11100
H1436       H  0.53004481  0.34389060  0.83319378     0.07600
C1437       C  0.51263270  0.48856627  0.52992862    -0.11500
C1438       C  0.49859684  0.49378816  0.49729342     0.05700
C1439       C  0.49178256  0.48022278  0.47234043    -0.10300
C1440       C  0.49807334  0.46206157  0.48006572    -0.11900
C1441       C  0.51065073  0.45694926  0.51314071    -0.01700
C1442       C  0.51808494  0.47036020  0.53790610    -0.10800
C1443       C  0.49152245  0.51321564  0.48906972     0.05700
H1444       H  0.48026699  0.48348354  0.44722264     0.07600
H1445       H  0.49089425  0.45191344  0.46106774     0.11100
H1446       H  0.52711266  0.46666695  0.56391654     0.11300
H1447       H  0.51904180  0.49849575  0.54958844     0.07600
C1448       C  0.48249007  0.52566848  0.51558544    -0.11500
C1449       C  0.47878567  0.54411265  0.50776475    -0.10800
C1450       C  0.48386616  0.55046297  0.47324615    -0.01700
C1451       C  0.49056019  0.53784423  0.44654842    -0.11900
C1452       C  0.49468874  0.51961844  0.45433955    -0.10300
H1453       H  0.47895684  0.52126355  0.54255821     0.07600
H1454       H  0.47386637  0.55346970  0.52896095     0.11300
H1455       H  0.49457670  0.54222110  0.41958526     0.11100
H1456       H  0.50202746  0.51073655  0.43312570     0.07600
C1457       C  0.66353446  0.23984307  0.04807066    -0.11500
C1458       C  0.63469560  0.24214618  0.07005806     0.05700
C1459       C  0.62144780  0.22706249  0.08797018    -0.10300
C1460       C  0.63670552  0.21012177  0.08410013    -0.11900
C1461       C  0.66549766  0.20777186  0.06199006    -0.01700
C1462       C  0.67869234  0.22287445  0.04400743    -0.10800
C1463       C  0.61825653  0.26017075  0.07373973     0.05700
H1464       H  0.59946330  0.22839939  0.10531918     0.07600
H1465       H  0.62580429  0.19884149  0.09844958     0.11100
H1466       H  0.70075874  0.22160887  0.02674618     0.11300
H1467       H  0.67407323  0.25114433  0.03350614     0.07600
C1468       C  0.63849337  0.27577312  0.07662464    -0.11500
C1469       C  0.62319540  0.29281167  0.07784515    -0.10800
C1470       C  0.58731422  0.29468402  0.07558082    -0.01700
C1471       C  0.56697219  0.27909409  0.07370471    -0.11900
C1472       C  0.58225586  0.26201005  0.07316861    -0.10300
H1473       H  0.66624110  0.27480642  0.07762649     0.07600
H1474       H  0.63955968  0.30458662  0.07912190     0.11300
H1475       H  0.53925955  0.28014235  0.07210896     0.11100
H1476       H  0.56593456  0.25026887  0.07093092     0.07600
C1477       C  0.94558804  0.12156194  0.02253032    -0.11500
C1478       C  0.96225160  0.13188701  0.04827388     0.05700
C1479       C  0.94265548  0.13958800  0.07534171    -0.10300
C1480       C  0.90723846  0.13689389  0.07697592    -0.11900
C1481       C  0.89036954  0.12641271  0.05152503    -0.01700
C1482       C  0.90995471  0.11881893  0.02416101    -0.10800
C1483       C  0.00014527  0.13398769  0.04824454     0.05700
H1484       H  0.95479481  0.14778097  0.09527353     0.07600
H1485       H  0.89305757  0.14321996  0.09814665     0.11100
H1486       H  0.89778858  0.11076595  0.00404971     0.11300
H1487       H  0.96022639  0.11533187  0.00157781     0.07600
C1488       C  0.01846748  0.13124063  0.07956006    -0.11500
C1489       C  0.05416734  0.13276570  0.08005702    -0.10800
C1490       C  0.07258393  0.13718343  0.04923533    -0.01700
C1491       C  0.05417197  0.14027862  0.01793412    -0.11900
C1492       C  0.01826983  0.13859683  0.01741276    -0.10300
H1493       H  0.00517887  0.12746772  0.10360285     0.07600
H1494       H  0.06737518  0.13011918  0.10460004     0.11300
H1495       H  0.06753822  0.14352233  0.99366188     0.11100
H1496       H  0.00465646  0.14089668  0.99297373     0.07600
C1497       C  0.44232847  0.10851665  0.07574840    -0.11500
C1498       C  0.46134399  0.11598709  0.04773129     0.05700
C1499       C  0.44388702  0.12170289  0.01737112    -0.10300
C1500       C  0.40830910  0.12011159  0.01504586    -0.11900
C1501       C  0.38903264  0.11280204  0.04309216    -0.01700
C1502       C  0.40649130  0.10688749  0.07342243    -0.10800
C1503       C  0.49926375  0.11792852  0.04956045     0.05700
H1504       H  0.45772092  0.12776288  0.99553005     0.07600
H1505       H  0.39589728  0.12490727  0.99130289     0.11100
H1506       H  0.39246457  0.10124275  0.09553515     0.11300
H1507       H  0.45519200  0.10384912  0.09932605     0.07600
C1508       C  0.51558462  0.12443242  0.07997862    -0.11500
C1509       C  0.55115138  0.12761459  0.08003649    -0.10800
C1510       C  0.57092568  0.12425076  0.04970068    -0.01700
C1511       C  0.55451694  0.11717057  0.01983312    -0.11900
C1512       C  0.51928452  0.11405983  0.01978935    -0.10300
H1513       H  0.50071408  0.12755775  0.10330741     0.07600
H1514       H  0.56304036  0.13285517  0.10359825     0.11300
H1515       H  0.56880306  0.11416859  0.99605511     0.11100
H1516       H  0.50760892  0.10870044  0.99620830     0.07600
C1517       C  0.10024804  0.26113444  0.02462189    -0.11500
C1518       C  0.12786432  0.25698023  0.04718014     0.05700
C1519       C  0.13741194  0.26998292  0.07229183    -0.10300
C1520       C  0.11996427  0.28651779  0.07460195    -0.11900
C1521       C  0.09211433  0.29044066  0.05225574    -0.01700
C1522       C  0.08252763  0.27744431  0.02734740    -0.10800
C1523       C  0.14609569  0.23915732  0.04437620     0.05700
H1524       H  0.15814850  0.26739033  0.09052014     0.07600
H1525       H  0.12836540  0.29624252  0.09389290     0.11100
H1526       H  0.06168674  0.28001038  0.00917836     0.11300
H1527       H  0.09249688  0.25195792  0.00411469     0.07600
C1528       C  0.12850206  0.22386216  0.03203814    -0.11500
C1529       C  0.14513137  0.20730267  0.02849650    -0.10800
C1530       C  0.17970494  0.20521209  0.03816375    -0.01700
C1531       C  0.19747194  0.22030361  0.05098034    -0.11900
C1532       C  0.18100295  0.23710550  0.05368888    -0.10300
H1533       H  0.10146118  0.22444878  0.02568388     0.07600
H1534       H  0.13040419  0.19590978  0.01921075     0.11300
H1535       H  0.22414649  0.21914503  0.05871550     0.11100
H1536       H  0.19583047  0.24847288  0.06279904     0.07600
C1537       C  0.87820222  0.72991356  0.99267916    -0.11500
C1538       C  0.88592482  0.74187151  0.96477360     0.05700
C1539       C  0.91215410  0.73705662  0.94107878    -0.10300
C1540       C  0.92957225  0.72069214  0.94464481    -0.11900
C1541       C  0.92113496  0.70845566  0.97180518    -0.01700
C1542       C  0.89543791  0.71338154  0.99603753    -0.10800
C1543       C  0.86636256  0.75906996  0.95981141     0.05700
H1544       H  0.91858700  0.74566284  0.91893635     0.07600
H1545       H  0.94892997  0.71738018  0.92517839     0.11100
H1546       H  0.88827175  0.70435443  0.01730484     0.11300
H1547       H  0.85869135  0.73327609  0.01192730     0.07600
C1548       C  0.83111939  0.76008425  0.96812005    -0.11500
C1549       C  0.81291119  0.77621811  0.96383518    -0.10800
C1550       C  0.82929885  0.79173969  0.95066680    -0.01700
C1551       C  0.86427161  0.79065279  0.94149944    -0.11900
C1552       C  0.88259918  0.77459671  0.94623974    -0.10300
H1553       H  0.81744243  0.74836598  0.97779554     0.07600
H1554       H  0.78595444  0.77655602  0.97098911     0.11300
H1555       H  0.87783673  0.80240558  0.93174495     0.11100
H1556       H  0.90975401  0.77451458  0.93998968     0.07600
C1557       C  0.74044331  0.98436489  0.96928768    -0.11500
C1558       C  0.75156843  0.98956641  0.00301177     0.05700
C1559       C  0.75448971  0.97601355  0.02917747    -0.10300
C1560       C  0.74732838  0.95795592  0.02158284    -0.11900
C1561       C  0.73797059  0.95291622  0.98746897    -0.01700
C1562       C  0.73433269  0.96628144  0.96153191    -0.10800
C1563       C  0.75963083  0.00894576  0.01086296     0.05700
H1564       H  0.76367274  0.97907584  0.05529105     0.07600
H1565       H  0.75140699  0.94779583  0.04171242     0.11100
H1566       H  0.72766073  0.96262255  0.93482820     0.11300
H1567       H  0.73669917  0.99416427  0.94851845     0.07600
C1568       C  0.76933968  0.02128830  0.98407086    -0.11500
C1569       C  0.77365768  0.03970191  0.99136105    -0.10800
C1570       C  0.76906050  0.04617215  0.02573326    -0.01700
C1571       C  0.76178538  0.03366671  0.05272324    -0.11900
C1572       C  0.75668202  0.01549847  0.04540352    -0.10300
H1573       H  0.77304978  0.01689650  0.95722772     0.07600
H1574       H  0.77897727  0.04894320  0.96987536     0.11300
H1575       H  0.75808587  0.03808768  0.07960688     0.11100
H1576       H  0.74879823  0.00686946  0.06695188     0.07600
C1577       C  0.47876816  0.85873476  0.99306505    -0.11500
C1578       C  0.49542298  0.86048053  0.96030695     0.05700
C1579       C  0.47597099  0.85850908  0.92946407    -0.10300
C1580       C  0.44050761  0.85568389  0.93122493    -0.11900
C1581       C  0.42342707  0.85484503  0.96390746    -0.01700
C1582       C  0.44316067  0.85590341  0.99486707    -0.10800
C1583       C  0.53285816  0.86447829  0.95797979     0.05700
H1584       H  0.48799860  0.85982606  0.90382149     0.07600
H1585       H  0.42629672  0.85496581  0.90680788     0.11100
H1586       H  0.43096589  0.85513176  0.02050764     0.11300
H1587       H  0.49324378  0.85976595  0.01727881     0.07600
C1588       C  0.54821244  0.87752014  0.97963603    -0.11500
C1589       C  0.58354302  0.88118475  0.97705575    -0.10800
C1590       C  0.60420248  0.87185930  0.95276339    -0.01700
C1591       C  0.58853106  0.85907004  0.93076666    -0.11900
C1592       C  0.55343836  0.85542291  0.93338783    -0.10300
H1593       H  0.53283174  0.88496673  0.99838485     0.07600
H1594       H  0.59467756  0.89121265  0.99418016     0.11300
H1595       H  0.60352365  0.85150427  0.91187267     0.11100
H1596       H  0.54248568  0.84521967  0.91652933     0.07600
C1597       C  0.05457355  0.86203763  0.94159792    -0.11500
C1598       C  0.03422473  0.87069464  0.96705710     0.05700
C1599       C  0.05069880  0.88154060  0.99226596    -0.10300
C1600       C  0.08650756  0.88365133  0.99194350    -0.11900
C1601       C  0.10657849  0.87523878  0.96602821    -0.01700
C1602       C  0.09014587  0.86440956  0.94089631    -0.10800
C1603       C  0.99608012  0.86847327  0.96696582     0.05700
H1604       H  0.03593246  0.88866794  0.01195252     0.07600
H1605       H  0.09841869  0.89210972  0.01157699     0.11100
H1606       H  0.10488570  0.85748711  0.92086447     0.11300
H1607       H  0.04313135  0.85320716  0.92232407     0.07600
C1608       C  0.97818312  0.86642091  0.93505658    -0.11500
C1609       C  0.94250494  0.86432674  0.93478908    -0.10800
C1610       C  0.92362889  0.86451532  0.96636798    -0.01700
C1611       C  0.94137497  0.86656723  0.99830234    -0.11900
C1612       C  0.97715874  0.86839586  0.99861686    -0.10300
H1613       H  0.99159901  0.86681754  0.91005793     0.07600
H1614       H  0.92962510  0.86305350  0.90968509     0.11300
H1615       H  0.92760389  0.86677202  0.02313108     0.11100
H1616       H  0.98996061  0.86961276  0.02374682     0.07600
C1617       C  0.37037384  0.77520071  0.90165379    -0.11500
C1618       C  0.35515227  0.75922469  0.91416493     0.05700
C1619       C  0.32168159  0.76004503  0.92818795    -0.10300
C1620       C  0.30418477  0.77646856  0.93036480    -0.11900
C1621       C  0.31962420  0.79251072  0.91838764    -0.01700
C1622       C  0.35278545  0.79161393  0.90357597    -0.10800
C1623       C  0.37435215  0.74184738  0.91353982     0.05700
H1624       H  0.30937339  0.74804522  0.93850275     0.07600
H1625       H  0.27881054  0.77663540  0.94216502     0.11100
H1626       H  0.36564496  0.80369176  0.89438239     0.11300
H1627       H  0.39599204  0.77502076  0.89044372     0.07600
C1628       C  0.35763906  0.72571527  0.90467861    -0.11500
C1629       C  0.37515270  0.70925351  0.90592897    -0.10800
C1630       C  0.40972810  0.70846728  0.91654390    -0.01700
C1631       C  0.42669978  0.72465674  0.92455129    -0.11900
C1632       C  0.40928611  0.74114564  0.92288990    -0.10300
H1633       H  0.33088986  0.72581225  0.89691424     0.07600
H1634       H  0.36125963  0.69706262  0.89962171     0.11300
H1635       H  0.45336615  0.72455924  0.93262370     0.11100
H1636       H  0.42289745  0.75329301  0.93006346     0.07600
C1637       C  0.21605756  0.96956726  0.06908326    -0.11500
C1638       C  0.24456347  0.98125503  0.06599954     0.05700
C1639       C  0.27502918  0.97453606  0.05130634    -0.10300
C1640       C  0.27647757  0.95706840  0.03817575    -0.11900
C1641       C  0.24750302  0.94567224  0.03925180    -0.01700
C1642       C  0.21754094  0.95191329  0.05592550    -0.10800
C1643       C  0.24158214  0.00093968  0.07313643     0.05700
H1644       H  0.29729989  0.98312426  0.04795619     0.07600
H1645       H  0.30022977  0.95272525  0.02593643     0.11100
H1646       H  0.19487639  0.94348031  0.05740902     0.11300
H1647       H  0.19224382  0.97427665  0.08062115     0.07600
C1648       C  0.21213737  0.01021387  0.06212338    -0.11500
C1649       C  0.21147799  0.02897067  0.06171622    -0.10800
C1650       C  0.24033536  0.03914156  0.07212229    -0.01700
C1651       C  0.26892818  0.02994535  0.08568784    -0.11900
C1652       C  0.26955343  0.01101200  0.08615177    -0.10300
H1653       H  0.19030622  0.00302629  0.05154077     0.07600
H1654       H  0.18868089  0.03548780  0.05147801     0.11300
H1655       H  0.29140739  0.03731327  0.09417954     0.11100
H1656       H  0.29249677  0.00424760  0.09533773     0.07600
C1657       C  0.83309760  0.24045653  0.57678102    -0.11500
C1658       C  0.85526383  0.24689262  0.55030635     0.05700
C1659       C  0.85762495  0.23732643  0.51848286    -0.10300
C1660       C  0.83945054  0.22128990  0.51382707    -0.11900
C1661       C  0.81815429  0.21456162  0.54073423    -0.01700
C1662       C  0.81466267  0.22450972  0.57200157    -0.10800
C1663       C  0.87648925  0.26327345  0.55593034     0.05700
H1664       H  0.87381246  0.24216865  0.49720858     0.07600
H1665       H  0.84249195  0.21401442  0.48937336     0.11100
H1666       H  0.79873977  0.21960100  0.59344096     0.11300
H1667       H  0.83088364  0.24740555  0.60167775     0.07600
C1668       C  0.86303773  0.27841787  0.57328974    -0.11500
C1669       C  0.88254466  0.29418911  0.57629267    -0.10800
C1670       C  0.91586579  0.29513491  0.56193037    -0.01700
C1671       C  0.92977845  0.27969307  0.54604975    -0.11900
C1672       C  0.91039832  0.26397159  0.54320196    -0.10300
H1673       H  0.83697255  0.27832449  0.58335311     0.07600
H1674       H  0.87098709  0.30585819  0.58852565     0.11300
H1675       H  0.95547802  0.27985643  0.53501237     0.11100
H1676       H  0.92189130  0.25238518  0.53061386     0.07600
C1677       C  0.76442372  0.17213801  0.25067300    -0.11500
C1678       C  0.73959429  0.16585392  0.27475905     0.05700
C1679       C  0.70980575  0.15753200  0.26129166    -0.10300
C1680       C  0.70572973  0.15489949  0.22495645    -0.11900
C1681       C  0.73154326  0.16028935  0.20124408    -0.01700
C1682       C  0.76054805  0.16929247  0.21446519    -0.10800
C1683       C  0.74553087  0.16697490  0.31368624     0.05700
H1684       H  0.69028598  0.15226956  0.27891862     0.07600
H1685       H  0.68333236  0.14772234  0.21561988     0.11100
H1686       H  0.78077192  0.17373504  0.19677376     0.11300
H1687       H  0.78726620  0.17895618  0.25984633     0.07600
C1688       C  0.77852003  0.16425311  0.32815402    -0.11500
C1689       C  0.78320831  0.16305696  0.36480103    -0.10800
C1690       C  0.75496648  0.16440804  0.38781169    -0.01700
C1691       C  0.72250504  0.16835142  0.37340049    -0.11900
C1692       C  0.71786631  0.16963590  0.33695594    -0.10300
H1693       H  0.80049016  0.16205622  0.31115899     0.07600
H1694       H  0.80851390  0.15995592  0.37494487     0.11300
H1695       H  0.70022466  0.16975042  0.39033945     0.11100
H1696       H  0.69231356  0.17226001  0.32698690     0.07600
C1697       C  0.72725276  0.10476021  0.75255860    -0.11500
C1698       C  0.75245542  0.11139628  0.77551849     0.05700
C1699       C  0.78254139  0.11894428  0.76102927    -0.10300
C1700       C  0.78721077  0.11997194  0.72451906    -0.11900
C1701       C  0.76182144  0.11354362  0.70151636    -0.01700
C1702       C  0.73188294  0.10580615  0.71603636    -0.10800
C1703       C  0.74737938  0.11068784  0.81441015     0.05700
H1704       H  0.80222107  0.12444822  0.77794789     0.07600
H1705       H  0.81043377  0.12615972  0.71434452     0.11100
H1706       H  0.71181397  0.10064947  0.69917437     0.11300
H1707       H  0.70398838  0.09866244  0.76283371     0.07600
C1708       C  0.71518907  0.11453940  0.82957890    -0.11500
C1709       C  0.71103187  0.11472595  0.86623272    -0.10800
C1710       C  0.73898265  0.11108161  0.88859775    -0.01700
C1711       C  0.77093639  0.10683646  0.87334904    -0.11900
C1712       C  0.77504518  0.10661211  0.83676729    -0.10300
H1713       H  0.69341610  0.11790776  0.81313550     0.07600
H1714       H  0.68608058  0.11812624  0.87702404     0.11300
H1715       H  0.79296284  0.10380788  0.88968552     0.11100
H1716       H  0.79999493  0.10325017  0.82594762     0.07600
C1717       C  0.47824152  0.12608793  0.57612706    -0.11500
C1718       C  0.49811846  0.12842709  0.54531144     0.05700
C1719       C  0.48177641  0.13514107  0.51492571    -0.10300
C1720       C  0.44651820  0.13859379  0.51482241    -0.11900
C1721       C  0.42672246  0.13594836  0.54535383    -0.01700
C1722       C  0.44301206  0.13001310  0.57622841    -0.10800
C1723       C  0.53569178  0.12421202  0.54464888     0.05700
H1724       H  0.49613353  0.13778754  0.49101011     0.07600
H1725       H  0.43461152  0.14323873  0.49068481     0.11100
H1726       H  0.42819963  0.12759512  0.59998955     0.11300
H1727       H  0.48955898  0.12075189  0.59997439     0.07600
C1728       C  0.55606065  0.12635241  0.57492537    -0.11500
C1729       C  0.59164927  0.12393830  0.57331293    -0.10800
C1730       C  0.60778308  0.11973222  0.54127448    -0.01700
C1731       C  0.58760244  0.11690764  0.51134897    -0.11900
C1732       C  0.55191949  0.11879102  0.51316082    -0.10300
H1733       H  0.54488148  0.13068254  0.59958277     0.07600
H1734       H  0.60676984  0.12637692  0.59671713     0.11300
H1735       H  0.59949400  0.11348786  0.48642985     0.11100
H1736       H  0.53718796  0.11629377  0.48958004     0.07600
C1737       C  0.05242899  0.12681341  0.50427958    -0.11500
C1738       C  0.03373603  0.13283687  0.53365618     0.05700
C1739       C  0.05141614  0.13753739  0.56436027    -0.10300
C1740       C  0.08701411  0.13614057  0.56596951    -0.11900
C1741       C  0.10600475  0.12995487  0.53687787    -0.01700
C1742       C  0.08832820  0.12527034  0.50594138    -0.10800
C1743       C  0.99577707  0.13374971  0.53348925     0.05700
H1744       H  0.03758773  0.14237483  0.58724045     0.07600
H1745       H  0.09961139  0.13989891  0.59023220     0.11100
H1746       H  0.10219081  0.12049994  0.48305035     0.11300
H1747       H  0.03922698  0.12300068  0.48038916     0.07600
C1748       C  0.97783603  0.14279215  0.50666487    -0.11500
C1749       C  0.94202845  0.14475888  0.50876479    -0.10800
C1750       C  0.92369998  0.13760967  0.53762756    -0.01700
C1751       C  0.94188965  0.12823405  0.56393295    -0.11900
C1752       C  0.97738935  0.12633319  0.56184384    -0.10300
H1753       H  0.99160044  0.14873430  0.48466397     0.07600
H1754       H  0.92879258  0.15200272  0.48804876     0.11300
H1755       H  0.92876269  0.12234363  0.58639375     0.11100
H1756       H  0.99062172  0.11912443  0.58263796     0.07600
C1757       C  0.38142701  0.27385740  0.59606344    -0.11500
C1758       C  0.38705644  0.26164162  0.56846203     0.05700
C1759       C  0.41087825  0.26619091  0.54203001    -0.10300
C1760       C  0.42809600  0.28271230  0.54265715    -0.11900
C1761       C  0.42160854  0.29530759  0.56948498    -0.01700
C1762       C  0.39829665  0.29057903  0.59642798    -0.10800
C1763       C  0.36772649  0.24436294  0.56653259     0.05700
H1764       H  0.41611852  0.25693933  0.52072421     0.07600
H1765       H  0.44592027  0.28577420  0.52149600     0.11100
H1766       H  0.39276811  0.29987691  0.61756366     0.11300
H1767       H  0.36320291  0.27068227  0.61679805     0.07600
C1768       C  0.36530385  0.23281096  0.59586726    -0.11500
C1769       C  0.34844900  0.21616282  0.59328429    -0.10800
C1770       C  0.33300021  0.21087490  0.56150176    -0.01700
C1771       C  0.33468716  0.22269960  0.53246855    -0.11900
C1772       C  0.35207560  0.23914718  0.53487474    -0.10300
H1773       H  0.37718312  0.23647791  0.62055954     0.07600
H1774       H  0.34748962  0.20742958  0.61618600     0.11300
H1775       H  0.32315135  0.21907966  0.50757276     0.11100
H1776       H  0.35322589  0.24785857  0.51193842     0.07600
C1777       C  0.23616857  0.11791759  0.33122492    -0.11500
C1778       C  0.25209184  0.10368268  0.31321764     0.05700
C1779       C  0.27581323  0.09280761  0.33167691    -0.10300
C1780       C  0.28305437  0.09605476  0.36731199    -0.11900
C1781       C  0.26627366  0.11002821  0.38509179    -0.01700
C1782       C  0.24294918  0.12092482  0.36670559    -0.10800
C1783       C  0.24495722  0.10098092  0.27500478     0.05700
H1784       H  0.28834200  0.08161582  0.31879309     0.07600
H1785       H  0.30070468  0.08730900  0.38124075     0.11100
H1786       H  0.22976759  0.13181046  0.37999666     0.11300
H1787       H  0.21863356  0.12693337  0.31784963     0.07600
C1788       C  0.21233653  0.10488796  0.26082042    -0.11500
C1789       C  0.20703892  0.10492640  0.22437197    -0.10800
C1790       C  0.23409894  0.10079695  0.20120712    -0.01700
C1791       C  0.26606482  0.09577687  0.21551752    -0.11900
C1792       C  0.27143003  0.09590272  0.25188272    -0.10300
H1793       H  0.19101819  0.10837569  0.27785160     0.07600
H1794       H  0.18204131  0.10874220  0.21435300     0.11300
H1795       H  0.28755425  0.09246406  0.19856578     0.11100
H1796       H  0.29690116  0.09291470  0.26165644     0.07600
C1797       C  0.22222136  0.15469814  0.75456347    -0.11500
C1798       C  0.25064149  0.15960499  0.77500745     0.05700
C1799       C  0.28198994  0.16341978  0.75767849    -0.10300
C1800       C  0.28512592  0.16159581  0.72102477    -0.11900
C1801       C  0.25690181  0.15606473  0.70085216    -0.01700
C1802       C  0.22524830  0.15302262  0.71812387    -0.10800
C1803       C  0.24819860  0.15898413  0.81425463     0.05700
H1804       H  0.30432566  0.16752970  0.77252421     0.07600
H1805       H  0.30973530  0.16420684  0.70861642     0.11100
H1806       H  0.20278144  0.14872817  0.70365419     0.11300
H1807       H  0.19787704  0.15133492  0.76681732     0.07600
C1808       C  0.21758611  0.16355568  0.83217848    -0.11500
C1809       C  0.21419103  0.16059235  0.86861336    -0.10800
C1810       C  0.24142329  0.15310331  0.88791714    -0.01700
C1811       C  0.27250035  0.14937994  0.87009735    -0.11900
C1812       C  0.27575166  0.15218631  0.83393656    -0.10300
H1813       H  0.19597402  0.16910800  0.81792540     0.07600
H1814       H  0.19005618  0.16374550  0.88143724     0.11300
H1815       H  0.29426075  0.14361228  0.88381344     0.11100
H1816       H  0.29946801  0.14819187  0.82120740     0.07600
C1817       C  0.66444470  0.76724815  0.43075245    -0.11500
C1818       C  0.63006679  0.76553713  0.42000318     0.05700
C1819       C  0.61206982  0.78115394  0.40999194    -0.10300
C1820       C  0.62785142  0.79810948  0.41134502    -0.11900
C1821       C  0.66186838  0.79988948  0.42327990    -0.01700
C1822       C  0.68007495  0.78420217  0.43256590    -0.10800
C1823       C  0.61281746  0.74759665  0.42030510     0.05700
H1824       H  0.58566234  0.78025185  0.40127370     0.07600
H1825       H  0.61300196  0.80988484  0.40415501     0.11100
H1826       H  0.70629939  0.78504425  0.44187975     0.11300
H1827       H  0.67893547  0.75550758  0.43888010     0.07600
C1828       C  0.62973419  0.73227439  0.40730229    -0.11500
C1829       C  0.61392968  0.71532166  0.40863380    -0.10800
C1830       C  0.58099407  0.71319533  0.42352380    -0.01700
C1831       C  0.56397839  0.72857441  0.43629884    -0.11900
C1832       C  0.57960388  0.74556433  0.43449890    -0.10300
H1833       H  0.65523304  0.73341761  0.39599762     0.07600
H1834       H  0.62786955  0.70379932  0.39866793     0.11300
H1835       H  0.53860427  0.72747539  0.44791872     0.11100
H1836       H  0.56602896  0.75707112  0.44505039     0.07600
C1837       C  0.76847677  0.88578776  0.17428651    -0.11500
C1838       C  0.73510937  0.88147462  0.18633663     0.05700
C1839       C  0.70814666  0.88121462  0.16191216    -0.10300
C1840       C  0.71444409  0.88456300  0.12635837    -0.11900
C1841       C  0.74801861  0.88788483  0.11404024    -0.01700
C1842       C  0.77492534  0.88875847  0.13844411    -0.10800
C1843       C  0.72858646  0.87664999  0.22388421     0.05700
H1844       H  0.68228295  0.87767710  0.16989905     0.07600
H1845       H  0.69309013  0.88355315  0.10826329     0.11100
H1846       H  0.80101708  0.89133256  0.12975853     0.11300
H1847       H  0.78978738  0.88661741  0.19244224     0.07600
C1848       C  0.75385007  0.86759336  0.24345673    -0.11500
C1849       C  0.74869635  0.86384173  0.27904378    -0.10800
C1850       C  0.71800668  0.86883522  0.29598990    -0.01700
C1851       C  0.69180873  0.87689458  0.27619632    -0.11900
C1852       C  0.69714444  0.88089890  0.24050551    -0.10300
H1853       H  0.77789521  0.86355962  0.23146354     0.07600
H1854       H  0.76935881  0.85759172  0.29374334     0.11300
H1855       H  0.66818882  0.88117009  0.28879123     0.11100
H1856       H  0.67714980  0.88801074  0.22642548     0.07600
C1857       C  0.73200924  0.84951669  0.74478283    -0.11500
C1858       C  0.75961612  0.85546074  0.72388959     0.05700
C1859       C  0.79209604  0.85752149  0.73984541    -0.10300
C1860       C  0.79607998  0.85495602  0.77632828    -0.11900
C1861       C  0.76765113  0.85024414  0.79730748    -0.01700
C1862       C  0.73606254  0.84675783  0.78074194    -0.10800
C1863       C  0.75329795  0.86067025  0.68646636     0.05700
H1864       H  0.81413180  0.86171103  0.72438094     0.07600
H1865       H  0.82071079  0.85774404  0.78831728     0.11100
H1866       H  0.71359388  0.84297803  0.79601276     0.11300
H1867       H  0.70651671  0.84799846  0.73389029     0.07600
C1868       C  0.72833925  0.85157918  0.66648179    -0.11500
C1869       C  0.71952736  0.85758979  0.63280914    -0.10800
C1870       C  0.73605197  0.87256350  0.61782510    -0.01700
C1871       C  0.76166543  0.88141274  0.63719524    -0.11900
C1872       C  0.76996255  0.87564497  0.67128534    -0.10300
H1873       H  0.71549287  0.83975286  0.67683134     0.07600
H1874       H  0.70030997  0.85023923  0.61813648     0.11300
H1875       H  0.77495059  0.89295620  0.62614293     0.11100
H1876       H  0.78880857  0.88320170  0.68601144     0.07600
C1877       C  0.71061800  0.98167431  0.55053719    -0.11500
C1878       C  0.74062610  0.99220086  0.55016953     0.05700
C1879       C  0.77144037  0.98430971  0.53788895    -0.10300
C1880       C  0.77167301  0.96672692  0.52460186    -0.11900
C1881       C  0.74100280  0.95692424  0.52269234    -0.01700
C1882       C  0.71071946  0.96438151  0.53645969    -0.10800
C1883       C  0.73900256  0.01173485  0.55914108     0.05700
H1884       H  0.79505798  0.99198179  0.53675251     0.07600
H1885       H  0.79528452  0.96120342  0.51402996     0.11100
H1886       H  0.68684286  0.95688315  0.53570381     0.11300
H1887       H  0.68669484  0.98695939  0.56076797     0.07600
C1888       C  0.70959233  0.02202195  0.55074166    -0.11500
C1889       C  0.70992893  0.04078784  0.55370941    -0.10800
C1890       C  0.73978194  0.04960360  0.56463561    -0.01700
C1891       C  0.76831397  0.03942425  0.57519440    -0.11900
C1892       C  0.76780683  0.02066650  0.57293177    -0.10300
H1893       H  0.68703054  0.01578006  0.53956704     0.07600
H1894       H  0.68788683  0.04846194  0.54486795     0.11300
H1895       H  0.79163896  0.04608416  0.58361182     0.11100
H1896       H  0.79054143  0.01325536  0.58060208     0.07600
C1897       C  0.00245293  0.86764807  0.42873588    -0.11500
C1898       C  0.98614027  0.87919694  0.45297763     0.05700
C1899       C  0.00626536  0.88738870  0.47899332    -0.10300
C1900       C  0.04128407  0.88379985  0.48151670    -0.11900
C1901       C  0.05766836  0.87215483  0.45765936    -0.01700
C1902       C  0.03789868  0.86421567  0.43097998    -0.10800
C1903       C  0.94829875  0.88252649  0.45209721     0.05700
H1904       H  0.99504360  0.89677298  0.49745349     0.07600
H1905       H  0.05560768  0.89043038  0.50212859     0.11100
H1906       H  0.04971507  0.85524407  0.41210010     0.11300
H1907       H  0.98777690  0.86098206  0.40845480     0.07600
C1908       C  0.93026573  0.88333954  0.42010298    -0.11500
C1909       C  0.89470979  0.88629045  0.41982021    -0.10800
C1910       C  0.87631066  0.88863075  0.45150536    -0.01700
C1911       C  0.89443528  0.88813817  0.48337983    -0.11900
C1912       C  0.92982134  0.88498924  0.48368449    -0.10300
H1913       H  0.94358823  0.88175790  0.39524081     0.07600
H1914       H  0.88156549  0.88649607  0.39472882     0.11300
H1915       H  0.88111938  0.88957138  0.50829222     0.11100
H1916       H  0.94251916  0.88403213  0.50893222     0.07600
C1917       C  0.42879615  0.88832960  0.48597643    -0.11500
C1918       C  0.44791481  0.88633176  0.45466411     0.05700
C1919       C  0.43001409  0.88570247  0.42252834    -0.10300
C1920       C  0.39407653  0.88596136  0.42189489    -0.11900
C1921       C  0.37506489  0.88720677  0.45330942    -0.01700
C1922       C  0.39284420  0.88889746  0.48526919    -0.10800
C1923       C  0.48606741  0.88396176  0.45567496     0.05700
H1924       H  0.44372921  0.88473720  0.39776954     0.07600
H1925       H  0.38113397  0.88491491  0.39678076     0.11100
H1926       H  0.37895065  0.88982103  0.50995672     0.11300
H1927       H  0.44144581  0.88868465  0.51129406     0.07600
C1928       C  0.50274152  0.87257379  0.43146023    -0.11500
C1929       C  0.53827827  0.86980761  0.43303671    -0.10800
C1930       C  0.55800909  0.87806576  0.45927692    -0.01700
C1931       C  0.54151644  0.88942918  0.48351529    -0.11900
C1932       C  0.50607398  0.89247769  0.48154096    -0.10300
H1933       H  0.48828350  0.86543457  0.41164617     0.07600
H1934       H  0.55024042  0.86091601  0.41409741     0.11300
H1935       H  0.55614141  0.89621714  0.50371309     0.11100
H1936       H  0.49444402  0.90161686  0.50020458     0.07600
C1937       C  0.11212304  0.72820574  0.49924627    -0.11500
C1938       C  0.11080392  0.73896561  0.46859449     0.05700
C1939       C  0.09281463  0.73234919  0.43931123    -0.10300
C1940       C  0.07652907  0.71557945  0.44059470    -0.11900
C1941       C  0.07806610  0.70474876  0.47102949    -0.01700
C1942       C  0.09610936  0.71125274  0.50038361    -0.10800
C1943       C  0.12790607  0.75700778  0.46688270     0.05700
H1944       H  0.09179867  0.73999978  0.41499908     0.07600
H1945       H  0.06338813  0.71089083  0.41727612     0.11100
H1946       H  0.09771504  0.70327408  0.52426876     0.11300
H1947       H  0.12528275  0.73294759  0.52249281     0.07600
C1948       C  0.11257256  0.77131719  0.44828054    -0.11500
C1949       C  0.12858964  0.78814861  0.44597889    -0.10800
C1950       C  0.16037284  0.79127609  0.46241508    -0.01700
C1951       C  0.17569924  0.77703029  0.48124224    -0.11900
C1952       C  0.15973613  0.76010075  0.48333615    -0.10300
H1953       H  0.08780372  0.76961544  0.43583838     0.07600
H1954       H  0.11569488  0.79882350  0.43169072     0.11300
H1955       H  0.20014696  0.77892700  0.49424493     0.11100
H1956       H  0.17257905  0.74936406  0.49747083     0.07600
C1957       C  0.20314617  0.85444496  0.24994583    -0.11500
C1958       C  0.23484155  0.84965915  0.23452752     0.05700
C1959       C  0.25967946  0.84122852  0.25570822    -0.10300
C1960       C  0.25397788  0.83887351  0.29179131    -0.11900
C1961       C  0.22320463  0.84474449  0.30753785    -0.01700
C1962       C  0.19730644  0.85189559  0.28601696    -0.10800
C1963       C  0.24242229  0.85427228  0.19704405     0.05700
H1964       H  0.28399734  0.83694739  0.24464435     0.07600
H1965       H  0.27445569  0.83334171  0.30778462     0.11100
H1966       H  0.17366129  0.85689549  0.29748452     0.11300
H1967       H  0.18351975  0.86116425  0.23462470     0.07600
C1968       C  0.21614192  0.85379522  0.17183545    -0.11500
C1969       C  0.22246331  0.85910125  0.13717044    -0.10800
C1970       C  0.25541047  0.86469302  0.12649547    -0.01700
C1971       C  0.28205379  0.86482890  0.15127723    -0.11900
C1972       C  0.27554998  0.85983677  0.18632664    -0.10300
H1973       H  0.19061063  0.84917487  0.17878271     0.07600
H1974       H  0.20158250  0.85840887  0.11843314     0.11300
H1975       H  0.30770748  0.86900501  0.14366214     0.11100
H1976       H  0.29633824  0.86065121  0.20511476     0.07600
C1977       C  0.26511904  0.88640256  0.67067423    -0.11500
C1978       C  0.24673736  0.87279059  0.68846860     0.05700
C1979       C  0.22042423  0.86371917  0.67045140    -0.10300
C1980       C  0.21188848  0.86849559  0.63608252    -0.11900
C1981       C  0.23006302  0.88211731  0.61841061    -0.01700
C1982       C  0.25708030  0.89089113  0.63579688    -0.10800
C1983       C  0.25295017  0.86883440  0.72634516     0.05700
H1984       H  0.20638953  0.85280723  0.68286664     0.07600
H1985       H  0.19178224  0.86106061  0.62288885     0.11100
H1986       H  0.27185247  0.90125141  0.62245188     0.11300
H1987       H  0.28525219  0.89380385  0.68384830     0.07600
C1988       C  0.28605245  0.86965237  0.74130187    -0.11500
C1989       C  0.29053793  0.86719306  0.77771976    -0.10800
C1990       C  0.26193645  0.86398136  0.79952759    -0.01700
C1991       C  0.22931059  0.86239521  0.78422908    -0.11900
C1992       C  0.22484351  0.86489150  0.74831356    -0.10300
H1993       H  0.30831758  0.87244639  0.72499782     0.07600
H1994       H  0.31594673  0.86856852  0.78894870     0.11300
H1995       H  0.20678933  0.85982519  0.80034649     0.11100
H1996       H  0.19892990  0.86446731  0.73808938     0.07600
C1997       C  0.25717946  0.98364807  0.51070481    -0.11500
C1998       C  0.23563683  0.99468578  0.48994044     0.05700
C1999       C  0.21699102  0.98680038  0.46263025    -0.10300
C2000       C  0.21902398  0.96837259  0.45664648    -0.11900
C2001       C  0.23981928  0.95713832  0.47777570    -0.01700
C2002       C  0.25918231  0.96502242  0.50475312    -0.10800
C2003       C  0.23108220  0.01417184  0.49763129     0.05700
H2004       H  0.19977540  0.99478307  0.44655293     0.07600
H2005       H  0.20331263  0.96290313  0.43579187     0.11100
H2006       H  0.27537305  0.95681306  0.52150835     0.11300
H2007       H  0.27225868  0.98940536  0.53174450     0.07600
C2008       C  0.22867819  0.01999632  0.53260797    -0.11500
C2009       C  0.22538671  0.03825968  0.54025542    -0.10800
C2010       C  0.22455009  0.05123771  0.51315723    -0.01700
C2011       C  0.22476923  0.04541485  0.47803477    -0.11900
C2012       C  0.22813434  0.02703516  0.47033188    -0.10300
H2013       H  0.22971014  0.01042465  0.55417890     0.07600
H2014       H  0.22493542  0.04233143  0.56760401     0.11300
H2015       H  0.22454455  0.05510544  0.45662699     0.11100
H2016       H  0.22977738  0.02297076  0.44303622     0.07600
loop_ 
_geom_bond_atom_site_label_1 
_geom_bond_atom_site_label_2 
_geom_bond_distance 
_geom_bond_site_symmetry_2 
_ccdc_geom_bond_type 
Zr1           O2   2.441       .  S
Zr1           O3   2.442       .  S
Zr1           O4   2.478       .  S
Zr1           O7   2.469       .  S
Zr1           O9   2.391       .  S
Zr1          O10   2.395       .  S
Zr1          O11   2.412       .  S
Zr1          O12   2.397       .  S
O2           H58   0.990       .  S
O2           H66   0.990       .  S
O3           C23   1.285       .  A
O4           C25   1.292       .  A
O5          Zr15   2.411       .  S
O5           C24   1.283       .  A
O6          Zr14   2.400       .  S
O6           C25   1.280       .  A
O7           C24   1.292       .  A
O8          Zr16   2.439       .  S
O8           C23   1.284       .  A
O9          Zr14   2.404       .  S
O9          Zr16   2.374       .  S
O10         Zr15   2.393       .  S
O10         Zr16   2.382       .  S
O10          H45   0.966       .  S
O11         Zr14   2.401       .  S
O11         Zr31   2.378       .  S
O11          H48   0.965       .  S
O12         Zr15   2.394       .  S
O12         Zr31   2.379       .  S
Zr13         O38   2.442       .  S
Zr13         O32   2.477       .  S
Zr13         O40   2.432       .  S
Zr13         O28   2.450       .  S
Zr13         O19   2.402       .  S
Zr13         O20   2.425       .  S
Zr13         O21   2.373       .  S
Zr13         O22   2.388       .  S
Zr14         O33   2.435       .  S
Zr14         O26   2.436       .  S
Zr14         O27   2.421       .  S
Zr14         O20   2.387       .  S
Zr14         O21   2.392       .  S
Zr15         O17   2.438       .  S
Zr15         O39   2.436       .  S
Zr15         O41   2.444       .  S
Zr15         O19   2.370       .  S
Zr15         O22   2.387       .  S
Zr16         O42   2.438       .  S
Zr16         O43   2.435       .  S
Zr16         O18   2.435       .  S
Zr16         O19   2.386       .  S
Zr16         O20   2.413       .  S
O17          H54   0.990       .  S
O18          H49   0.990       .  S
O18          H63   0.990       .  S
O20          H46   0.965       .  S
O21         Zr31   2.381       .  S
O22         Zr31   2.392       .  S
O22          H47   0.965       .  S
C23        C1950   1.492       .  S
C24        C1901   1.487       .  S
C25        C1961   1.479       .  S
O26          H62   0.990       .  S
O27          C29   1.283       .  A
O28          C29   1.285       .  A
C29        C1921   1.484       .  S
O30         Zr31   2.440       .  S
O30          H59   0.991       .  S
Zr31         O34   2.439       .  S
Zr31         O35   2.438       .  S
Zr31         O36   2.381       .  S
O32          C37   1.290       .  A
O33          H50   0.990       .  S
O33          H65   0.990       .  S
O34          H51   0.990       .  S
O35          H55   0.990       .  S
O35          H64   0.990       .  S
O36          C37   1.275       .  A
C37        C2001   1.487       .  S
O38          H57   0.991       .  S
O38          H61   0.990       .  S
O39          H53   0.990       .  S
O39          H60   0.990       .  S
O40          C44   1.284       .  A
O41          C44   1.288       .  A
O42          H52   0.990       .  S
O43          H56   0.990       .  S
C44        C1981   1.473       .  S
Zr67         O68   2.444       .  S
Zr67         O69   2.453       .  S
Zr67         O70   2.471       .  S
Zr67         O73   2.452       .  S
Zr67         O75   2.386       .  S
Zr67         O76   2.392       .  S
Zr67         O77   2.420       .  S
Zr67         O78   2.400       .  S
O68         H124   0.991       .  S
O68         H132   0.990       .  S
O69          C89   1.287       .  A
O70          C91   1.289       .  A
O71         Zr81   2.434       .  S
O71          C90   1.286       .  A
O72         Zr80   2.386       .  S
O72          C91   1.276       .  A
O73          C90   1.289       .  A
O74         Zr82   2.421       .  S
O74          C89   1.282       .  A
O75         Zr80   2.401       .  S
O75         Zr82   2.378       .  S
O76         Zr81   2.393       .  S
O76         Zr82   2.379       .  S
O76         H111   0.966       .  S
O77         Zr80   2.399       .  S
O77         Zr97   2.399       .  S
O77         H114   0.965       .  S
O78         Zr81   2.392       .  S
O78         Zr97   2.382       .  S
Zr79        O104   2.443       .  S
Zr79         O98   2.463       .  S
Zr79        O106   2.431       .  S
Zr79         O94   2.463       .  S
Zr79         O85   2.403       .  S
Zr79         O86   2.419       .  S
Zr79         O87   2.379       .  S
Zr79         O88   2.393       .  S
Zr80         O99   2.436       .  S
Zr80         O92   2.434       .  S
Zr80         O93   2.411       .  S
Zr80         O86   2.389       .  S
Zr80         O87   2.394       .  S
Zr81         O83   2.437       .  S
Zr81        O105   2.437       .  S
Zr81        O107   2.451       .  S
Zr81         O85   2.379       .  S
Zr81         O88   2.387       .  S
Zr82        O108   2.436       .  S
Zr82        O109   2.435       .  S
Zr82         O84   2.436       .  S
Zr82         O85   2.379       .  S
Zr82         O86   2.402       .  S
O83         H120   0.990       .  S
O84         H115   0.990       .  S
O84         H129   0.990       .  S
O86         H112   0.964       .  S
O87         Zr97   2.389       .  S
O88         Zr97   2.389       .  S
O88         H113   0.965       .  S
C89        C1821   1.489       .  S
C90        C1930   1.483       .  S
C91        C1850   1.474       .  S
O92         H128   0.990       .  S
O93          C95   1.280       .  A
O94          C95   1.288       .  A
C95        C1910   1.486       .  S
O96         Zr97   2.436       .  S
O96         H125   0.990       .  S
Zr97        O100   2.436       .  S
Zr97        O101   2.439       .  S
Zr97        O102   2.405       .  S
O98         C103   1.287       .  A
O99         H116   0.991       .  S
O99         H131   0.990       .  S
O100        H117   0.990       .  S
O101        H121   0.990       .  S
O101        H130   0.990       .  S
O102        C103   1.279       .  A
C103       C1881   1.472       .  S
O104        H123   0.991       .  S
O104        H127   0.990       .  S
O105        H119   0.989       .  S
O105        H126   0.990       .  S
O106        C110   1.284       .  A
O107        C110   1.289       .  A
O108        H118   0.991       .  S
O109        H122   0.990       .  S
C110       C1870   1.478       .  S
Zr133       O134   2.443       .  S
Zr133       O135   2.467       .  S
Zr133       O136   2.421       .  S
Zr133       O139   2.442       .  S
Zr133       O141   2.378       .  S
Zr133       O142   2.381       .  S
Zr133       O143   2.421       .  S
Zr133       O144   2.410       .  S
O134        H190   0.990       .  S
O134        H198   0.991       .  S
O135        C155   1.289       .  A
O136        C157   1.280       .  A
O137       Zr147   2.409       .  S
O137        C156   1.281       .  A
O138       Zr146   2.456       .  S
O138        C157   1.287       .  A
O139        C156   1.285       .  A
O140       Zr148   2.397       .  S
O140        C155   1.278       .  A
O141       Zr146   2.394       .  S
O141       Zr148   2.387       .  S
O142       Zr147   2.388       .  S
O142       Zr148   2.376       .  S
O142        H177   0.966       .  S
O143       Zr146   2.398       .  S
O143       Zr163   2.395       .  S
O143        H180   0.965       .  S
O144       Zr147   2.382       .  S
O144       Zr163   2.401       .  S
Zr145       O170   2.440       .  S
Zr145       O164   2.443       .  S
Zr145       O172   2.479       .  S
Zr145       O160   2.457       .  S
Zr145       O151   2.402       .  S
Zr145       O152   2.413       .  S
Zr145       O153   2.390       .  S
Zr145       O154   2.390       .  S
Zr146       O165   2.436       .  S
Zr146       O158   2.437       .  S
Zr146       O159   2.425       .  S
Zr146       O152   2.409       .  S
Zr146       O153   2.400       .  S
Zr147       O149   2.435       .  S
Zr147       O171   2.438       .  S
Zr147       O173   2.391       .  S
Zr147       O151   2.394       .  S
Zr147       O154   2.397       .  S
Zr148       O174   2.436       .  S
Zr148       O175   2.436       .  S
Zr148       O150   2.439       .  S
Zr148       O151   2.384       .  S
Zr148       O152   2.383       .  S
O149        H186   0.990       .  S
O150        H181   0.990       .  S
O150        H195   0.990       .  S
O152        H178   0.965       .  S
O153       Zr163   2.374       .  S
O154       Zr163   2.373       .  S
O154        H179   0.966       .  S
C155       C2010   1.482       .  S
C156       C1741   1.483       .  S
C157       C1781   1.472       .  S
O158        H194   0.990       .  S
O159        C161   1.284       .  A
O160        C161   1.289       .  A
C161       C1721   1.479       .  S
O162       Zr163   2.434       .  S
O162        H191   0.990       .  S
Zr163       O166   2.434       .  S
Zr163       O167   2.438       .  S
Zr163       O168   2.432       .  S
O164        C169   1.285       .  A
O165        H182   0.990       .  S
O165        H197   0.990       .  S
O166        H183   0.990       .  S
O167        H187   0.990       .  S
O167        H196   0.989       .  S
O168        C169   1.284       .  A
C169       C1770   1.490       .  S
O170        H189   0.990       .  S
O170        H193   0.990       .  S
O171        H185   0.990       .  S
O171        H192   0.990       .  S
O172        C176   1.293       .  A
O173        C176   1.278       .  A
O174        H184   0.990       .  S
O175        H188   0.990       .  S
C176       C1801   1.489       .  S
Zr199       O200   2.443       .  S
Zr199       O201   2.444       .  S
Zr199       O202   2.480       .  S
Zr199       O205   2.462       .  S
Zr199       O207   2.386       .  S
Zr199       O208   2.396       .  S
Zr199       O209   2.409       .  S
Zr199       O210   2.396       .  S
O200        H256   0.990       .  S
O200        H264   0.991       .  S
O201        C221   1.286       .  A
O202        C223   1.291       .  A
O203       Zr213   2.406       .  S
O203        C222   1.282       .  A
O204       Zr212   2.411       .  S
O204        C223   1.281       .  A
O205        C222   1.291       .  A
O206       Zr214   2.417       .  S
O206        C221   1.281       .  A
O207       Zr212   2.400       .  S
O207       Zr214   2.382       .  S
O208       Zr213   2.389       .  S
O208       Zr214   2.376       .  S
O208        H243   0.966       .  S
O209       Zr212   2.399       .  S
O209       Zr229   2.395       .  S
O209        H246   0.965       .  S
O210       Zr213   2.393       .  S
O210       Zr229   2.375       .  S
Zr211       O236   2.442       .  S
Zr211       O230   2.456       .  S
Zr211       O238   2.442       .  S
Zr211       O226   2.429       .  S
Zr211       O217   2.401       .  S
Zr211       O218   2.414       .  S
Zr211       O219   2.382       .  S
Zr211       O220   2.380       .  S
Zr212       O231   2.435       .  S
Zr212       O224   2.434       .  S
Zr212       O225   2.430       .  S
Zr212       O218   2.391       .  S
Zr212       O219   2.393       .  S
Zr213       O215   2.436       .  S
Zr213       O237   2.437       .  S
Zr213       O239   2.433       .  S
Zr213       O217   2.386       .  S
Zr213       O220   2.385       .  S
Zr214       O240   2.436       .  S
Zr214       O241   2.436       .  S
Zr214       O216   2.438       .  S
Zr214       O217   2.393       .  S
Zr214       O218   2.390       .  S
O215        H252   0.990       .  S
O216        H247   0.990       .  S
O216        H261   0.990       .  S
O218        H244   0.964       .  S
O219       Zr229   2.381       .  S
O220       Zr229   2.388       .  S
O220        H245   0.966       .  S
C221       C1661   1.481       .  S
C222       C1750   1.483       .  S
C223       C1690   1.492       .  S
O224        H260   0.990       .  S
O225        C227   1.284       .  A
O226        C227   1.283       .  A
C227       C1730   1.473       .  S
O228       Zr229   2.440       .  S
O228        H257   0.990       .  S
Zr229       O232   2.438       .  S
Zr229       O233   2.439       .  S
Zr229       O234   2.404       .  S
O230        C235   1.286       .  A
O231        H248   0.990       .  S
O231        H263   0.990       .  S
O232        H249   0.990       .  S
O233        H253   0.990       .  S
O233        H262   0.991       .  S
O234        C235   1.278       .  A
C235       C1890   1.467       .  S
O236        H255   0.990       .  S
O236        H259   0.991       .  S
O237        H251   0.990       .  S
O237        H258   0.990       .  S
O238        C242   1.285       .  A
O239        C242   1.285       .  A
O240        H250   0.990       .  S
O241        H254   0.990       .  S
C242       C1701   1.488       .  S
Zr265       O266   2.443       .  S
Zr265       O267   2.478       .  S
Zr265       O268   2.431       .  S
Zr265       O271   2.461   1_554  S
Zr265       O273   2.381       .  S
Zr265       O274   2.383   1_554  S
Zr265       O275   2.428       .  S
Zr265       O276   2.405   1_554  S
O266        H322   0.990       .  S
O266        H330   0.991       .  S
O267        C287   1.290       .  A
O268        C289   1.283       .  A
O269       Zr279   2.415       .  S
O269        C288   1.281       .  A
O270       Zr278   2.442       .  S
O270        C289   1.286       .  A
O271        C288   1.289       .  A
O272       Zr280   2.389       .  S
O272        C287   1.276   1_556  A
O273       Zr278   2.401       .  S
O273       Zr280   2.384   1_554  S
O274       Zr279   2.394       .  S
O274       Zr280   2.381       .  S
O274        H309   0.966       .  S
O275       Zr278   2.405       .  S
O275       Zr295   2.396   1_554  S
O275        H312   0.964       .  S
O276       Zr279   2.373       .  S
O276       Zr295   2.390       .  S
Zr277       O302   2.442       .  S
Zr277       O296   2.436       .  S
Zr277       O304   2.456       .  S
Zr277       O292   2.444       .  S
Zr277       O283   2.404       .  S
Zr277       O284   2.403       .  S
Zr277       O285   2.381       .  S
Zr277       O286   2.387       .  S
Zr278       O297   2.436       .  S
Zr278       O290   2.434       .  S
Zr278       O291   2.442   1_554  S
Zr278       O284   2.405   1_554  S
Zr278       O285   2.389   1_554  S
Zr279       O281   2.437       .  S
Zr279       O303   2.437       .  S
Zr279       O305   2.398       .  S
Zr279       O283   2.391       .  S
Zr279       O286   2.396       .  S
Zr280       O306   2.436       .  S
Zr280       O307   2.435       .  S
Zr280       O282   2.438       .  S
Zr280       O283   2.387       .  S
Zr280       O284   2.377       .  S
O281        H318   0.990       .  S
O282        H313   0.990       .  S
O282        H327   0.990   1_556  S
O284        H310   0.964       .  S
O285       Zr295   2.377       .  S
O286       Zr295   2.371       .  S
O286        H311   0.966       .  S
C287       C1641   1.490       .  S
C288       C1601   1.484       .  S
C289       C1970   1.477       .  S
O290        H326   0.990       .  S
O291        C293   1.287       .  A
O292        C293   1.288       .  A
C293       C1581   1.489       .  S
O294       Zr295   2.440   1_554  S
O294        H323   0.990   1_554  S
Zr295       O298   2.439   1_556  S
Zr295       O299   2.442       .  S
Zr295       O300   2.431       .  S
O296        C301   1.285       .  A
O297        H314   0.990       .  S
O297        H329   0.990       .  S
O298        H315   0.990       .  S
O299        H319   0.990       .  S
O299        H328   0.990       .  S
O300        C301   1.284       .  A
C301       C1621   1.488       .  S
O302        H321   0.990       .  S
O302        H325   0.991       .  S
O303        H317   0.990       .  S
O303        H324   0.990       .  S
O304        C308   1.287       .  A
O305        C308   1.280       .  A
O306        H316   0.990       .  S
O307        H320   0.990       .  S
C308       C1990   1.476       .  S
Zr331       O332   2.441   1_556  S
Zr331       O333   2.473       .  S
Zr331       O334   2.415   1_556  S
Zr331       O337   2.458       .  S
Zr331       O339   2.374       .  S
Zr331       O340   2.376       .  S
Zr331       O341   2.428   1_556  S
Zr331       O342   2.406       .  S
O332        H388   0.990       .  S
O332        H396   0.991       .  S
O333        C353   1.289       .  A
O334        C355   1.281       .  A
O335       Zr345   2.411       .  S
O335        C354   1.281       .  A
O336       Zr344   2.456       .  S
O336        C355   1.288       .  A
O337        C354   1.288       .  A
O338       Zr346   2.381       .  S
O338        C353   1.274       .  A
O339       Zr344   2.392   1_556  S
O339       Zr346   2.385       .  S
O340       Zr345   2.392       .  S
O340       Zr346   2.381       .  S
O340        H375   0.966       .  S
O341       Zr344   2.401       .  S
O341       Zr361   2.389   1_554  S
O341        H378   0.964       .  S
O342       Zr345   2.373       .  S
O342       Zr361   2.394       .  S
Zr343       O368   2.440       .  S
Zr343       O362   2.444       .  S
Zr343       O370   2.477       .  S
Zr343       O358   2.451       .  S
Zr343       O349   2.396       .  S
Zr343       O350   2.413       .  S
Zr343       O351   2.389       .  S
Zr343       O352   2.385       .  S
Zr344       O363   2.437       .  S
Zr344       O356   2.436       .  S
Zr344       O357   2.427   1_554  S
Zr344       O350   2.418   1_554  S
Zr344       O351   2.400   1_554  S
Zr345       O347   2.436       .  S
Zr345       O369   2.438       .  S
Zr345       O371   2.382       .  S
Zr345       O349   2.388       .  S
Zr345       O352   2.398       .  S
Zr346       O372   2.435       .  S
Zr346       O373   2.436       .  S
Zr346       O348   2.439       .  S
Zr346       O349   2.374       .  S
Zr346       O350   2.381       .  S
O347        H384   0.990       .  S
O348        H379   0.990       .  S
O348        H393   0.990       .  S
O350        H376   0.965       .  S
O351       Zr361   2.376       .  S
O352       Zr361   2.371       .  S
O352        H377   0.966       .  S
C353       C1561   1.473       .  S
C354       C1590   1.488       .  S
C355       C1841   1.479       .  S
O356        H392   0.990       .  S
O357        C359   1.285       .  A
O358        C359   1.288       .  A
C359       C1610   1.483       .  S
O360       Zr361   2.438   1_554  S
O360        H389   0.990       .  S
Zr361       O364   2.438   1_556  S
Zr361       O365   2.438       .  S
Zr361       O366   2.427       .  S
O362        C367   1.286       .  A
O363        H380   0.991       .  S
O363        H395   0.990       .  S
O364        H381   0.990       .  S
O365        H385   0.990       .  S
O365        H394   0.990       .  S
O366        C367   1.283       .  A
C367       C1550   1.488       .  S
O368        H387   0.991       .  S
O368        H391   0.990       .  S
O369        H383   0.990       .  S
O369        H390   0.990       .  S
O370        C374   1.292       .  A
O371        C374   1.278       .  A
O372        H382   0.990       .  S
O373        H386   0.990       .  S
C374       C1861   1.483       .  S
Zr397       O398   2.442       .  S
Zr397       O399   2.488       .  S
Zr397       O400   2.429       .  S
Zr397       O403   2.450       .  S
Zr397       O405   2.377       .  S
Zr397       O406   2.380       .  S
Zr397       O407   2.427       .  S
Zr397       O408   2.413       .  S
O398        H454   0.990       .  S
O398        H462   0.991       .  S
O399        C419   1.293       .  A
O400        C421   1.283       .  A
O401       Zr411   2.410   1_554  S
O401        C420   1.281       .  A
O402       Zr410   2.451       .  S
O402        C421   1.288       .  A
O403        C420   1.287       .  A
O404       Zr412   2.382       .  S
O404        C419   1.275       .  A
O405       Zr410   2.388       .  S
O405       Zr412   2.385       .  S
O406       Zr411   2.390   1_554  S
O406       Zr412   2.381       .  S
O406        H441   0.966       .  S
O407       Zr410   2.399       .  S
O407       Zr427   2.398       .  S
O407        H444   0.964       .  S
O408       Zr411   2.377   1_554  S
O408       Zr427   2.402       .  S
Zr409       O434   2.442   1_554  S
Zr409       O428   2.436       .  S
Zr409       O436   2.478   1_554  S
Zr409       O424   2.464       .  S
Zr409       O415   2.402   1_554  S
Zr409       O416   2.408       .  S
Zr409       O417   2.389       .  S
Zr409       O418   2.385       .  S
Zr410       O429   2.437       .  S
Zr410       O422   2.434       .  S
Zr410       O423   2.417       .  S
Zr410       O416   2.413       .  S
Zr410       O417   2.401       .  S
Zr411       O413   2.436       .  S
Zr411       O435   2.437       .  S
Zr411       O437   2.390       .  S
Zr411       O415   2.390       .  S
Zr411       O418   2.396   1_556  S
Zr412       O438   2.437   1_554  S
Zr412       O439   2.436   1_554  S
Zr412       O414   2.439       .  S
Zr412       O415   2.386   1_554  S
Zr412       O416   2.378       .  S
O413        H450   0.990       .  S
O414        H445   0.991       .  S
O414        H459   0.990       .  S
O416        H442   0.965       .  S
O417       Zr427   2.375       .  S
O418       Zr427   2.370       .  S
O418        H443   0.971   1_554  S
C419       C1650   1.491       .  S
C420       C1501   1.486       .  S
C421       C1790   1.487       .  S
O422        H458   0.990       .  S
O423        C425   1.284       .  A
O424        C425   1.290       .  A
C425       C1490   1.486       .  S
O426       Zr427   2.439       .  S
O426        H455   0.991       .  S
Zr427       O430   2.437       .  S
Zr427       O431   2.440       .  S
Zr427       O432   2.442       .  S
O428        C433   1.285       .  A
O429        H446   0.990       .  S
O429        H461   0.990       .  S
O430        H447   0.990       .  S
O431        H451   0.991       .  S
O431        H460   0.988       .  S
O432        C433   1.285       .  A
C433       C1530   1.490       .  S
O434        H453   0.991       .  S
O434        H457   0.991       .  S
O435        H449   0.990       .  S
O435        H456   0.990       .  S
O436        C440   1.294       .  A
O437        C440   1.278       .  A
O438        H448   0.990       .  S
O439        H452   0.990       .  S
C440       C1810   1.491       .  S
Zr463       O464   2.439       .  S
Zr463       O465   2.427       .  S
Zr463       O466   2.474       .  S
Zr463       O469   2.457       .  S
Zr463       O471   2.384       .  S
Zr463       O472   2.399       .  S
Zr463       O473   2.405       .  S
Zr463       O474   2.393       .  S
O464        H520   0.990       .  S
O464        H528   0.990       .  S
O465        C485   1.283       .  A
O466        C487   1.291       .  A
O467       Zr477   2.403   1_554  S
O467        C486   1.281       .  A
O468       Zr476   2.416       .  S
O468        C487   1.281       .  A
O469        C486   1.289       .  A
O470       Zr478   2.441       .  S
O470        C485   1.285       .  A
O471       Zr476   2.389       .  S
O471       Zr478   2.376       .  S
O472       Zr477   2.394   1_554  S
O472       Zr478   2.377       .  S
O472        H507   0.966       .  S
O473       Zr476   2.398       .  S
O473       Zr493   2.386       .  S
O473        H510   0.965       .  S
O474       Zr477   2.393   1_554  S
O474       Zr493   2.378       .  S
Zr475       O500   2.444   1_554  S
Zr475       O494   2.487       .  S
Zr475       O502   2.440   1_554  S
Zr475       O490   2.463       .  S
Zr475       O481   2.413   1_554  S
Zr475       O482   2.424       .  S
Zr475       O483   2.383       .  S
Zr475       O484   2.383       .  S
Zr476       O495   2.436       .  S
Zr476       O488   2.436       .  S
Zr476       O489   2.406       .  S
Zr476       O482   2.391       .  S
Zr476       O483   2.401       .  S
Zr477       O479   2.438       .  S
Zr477       O501   2.437       .  S
Zr477       O503   2.437       .  S
Zr477       O481   2.381       .  S
Zr477       O484   2.383   1_556  S
Zr478       O504   2.435   1_554  S
Zr478       O505   2.437   1_554  S
Zr478       O480   2.438       .  S
Zr478       O481   2.400   1_554  S
Zr478       O482   2.402       .  S
O479        H516   0.990       .  S
O480        H511   0.991       .  S
O480        H525   0.989       .  S
O482        H508   0.965       .  S
O483       Zr493   2.383       .  S
O484       Zr493   2.388       .  S
O484        H509   0.965       .  S
C485       C1461   1.490       .  S
C486       C1510   1.484       .  S
C487       C1681   1.486       .  S
O488        H524   0.990       .  S
O489        C491   1.281       .  A
O490        C491   1.288       .  A
C491       C1481   1.485       .  S
O492       Zr493   2.439       .  S
O492        H521   0.990       .  S
Zr493       O496   2.437       .  S
Zr493       O497   2.441       .  S
Zr493       O498   2.389       .  S
O494        C499   1.292       .  A
O495        H512   0.990       .  S
O495        H527   0.990       .  S
O496        H513   0.990       .  S
O497        H517   0.990       .  S
O497        H526   0.990       .  S
O498        C499   1.277       .  A
C499       C1570   1.490       .  S
O500        H519   0.991       .  S
O500        H523   0.990       .  S
O501        H515   0.990       .  S
O501        H522   0.990       .  S
O502        C506   1.286       .  A
O503        C506   1.285       .  A
O504        H514   0.990       .  S
O505        H518   0.990       .  S
C506       C1710   1.487       .  S
Zr529       O530   2.442       .  S
Zr529       O531   2.476       .  S
Zr529       O532   2.431       .  S
Zr529       O535   2.443       .  S
Zr529       O537   2.376       .  S
Zr529       O538   2.385       .  S
Zr529       O539   2.421       .  S
Zr529       O540   2.412       .  S
O530        H586   0.990       .  S
O530        H594   0.991       .  S
O531        C551   1.290       .  A
O532        C553   1.283       .  A
O533       Zr543   2.427       .  S
O533        C552   1.285       .  A
O534       Zr542   2.458       .  S
O534        C553   1.288       .  A
O535        C552   1.286       .  A
O536       Zr544   2.388       .  S
O536        C551   1.274       .  A
O537       Zr542   2.390       .  S
O537       Zr544   2.392       .  S
O538       Zr543   2.397       .  S
O538       Zr544   2.385       .  S
O538        H573   0.966       .  S
O539       Zr542   2.396       .  S
O539       Zr559   2.391       .  S
O539        H576   0.963       .  S
O540       Zr543   2.375       .  S
O540       Zr559   2.397       .  S
Zr541       O566   2.441       .  S
Zr541       O560   2.449       .  S
Zr541       O568   2.469       .  S
Zr541       O556   2.446       .  S
Zr541       O547   2.398       .  S
Zr541       O548   2.413       .  S
Zr541       O549   2.385       .  S
Zr541       O550   2.386       .  S
Zr542       O561   2.439       .  S
Zr542       O554   2.435       .  S
Zr542       O555   2.409       .  S
Zr542       O548   2.412       .  S
Zr542       O549   2.402       .  S
Zr543       O545   2.436       .  S
Zr543       O567   2.436       .  S
Zr543       O569   2.408       .  S
Zr543       O547   2.389       .  S
Zr543       O550   2.395       .  S
Zr544       O570   2.434       .  S
Zr544       O571   2.435       .  S
Zr544       O546   2.439       .  S
Zr544       O547   2.376       .  S
Zr544       O548   2.384       .  S
O545        H582   0.990       .  S
O546        H577   0.990       .  S
O546        H591   0.989       .  S
O548        H574   0.965       .  S
O549       Zr559   2.366       .  S
O550       Zr559   2.372       .  S
O550        H575   0.966       .  S
C551       C1441   1.475       .  S
C552       C1361   1.488       .  S
C553       C1401   1.488       .  S
O554        H590   0.990       .  S
O555        C557   1.281       .  A
O556        C557   1.288       .  A
C557       C1381   1.476       .  S
O558       Zr559   2.438       .  S
O558        H587   0.991       .  S
Zr559       O562   2.437       .  S
Zr559       O563   2.440       .  S
Zr559       O564   2.425       .  S
O560        C565   1.287       .  A
O561        H578   0.990       .  S
O561        H593   0.990       .  S
O562        H579   0.990       .  S
O563        H583   0.990       .  S
O563        H592   0.990       .  S
O564        C565   1.283       .  A
C565       C1761   1.492       .  S
O566        H585   0.990       .  S
O566        H589   0.990       .  S
O567        H581   0.990       .  S
O567        H588   0.990       .  S
O568        C572   1.291       .  A
O569        C572   1.281       .  A
O570        H580   0.990       .  S
O571        H584   0.990       .  S
C572       C1421   1.484       .  S
Zr595       O596   2.443       .  S
Zr595       O597   2.469       .  S
Zr595       O598   2.422       .  S
Zr595       O601   2.444       .  S
Zr595       O603   2.378   1_455  S
Zr595       O604   2.384       .  S
Zr595       O605   2.424   1_455  S
Zr595       O606   2.412       .  S
O596        H652   0.990       .  S
O596        H660   0.991       .  S
O597        C617   1.288       .  A
O598        C619   1.282   1_455  A
O599       Zr609   2.403       .  S
O599        C618   1.280       .  A
O600       Zr608   2.464       .  S
O600        C619   1.290       .  A
O601        C618   1.285       .  A
O602       Zr610   2.394       .  S
O602        C617   1.277   1_655  A
O603       Zr608   2.396       .  S
O603       Zr610   2.386       .  S
O604       Zr609   2.394       .  S
O604       Zr610   2.375   1_455  S
O604        H639   0.966       .  S
O605       Zr608   2.406       .  S
O605       Zr625   2.378   1_655  S
O605        H642   0.963       .  S
O606       Zr609   2.381       .  S
O606       Zr625   2.394       .  S
Zr607       O632   2.443       .  S
Zr607       O626   2.442       .  S
Zr607       O634   2.453       .  S
Zr607       O622   2.430       .  S
Zr607       O613   2.403       .  S
Zr607       O614   2.406       .  S
Zr607       O615   2.382       .  S
Zr607       O616   2.381       .  S
Zr608       O627   2.435       .  S
Zr608       O620   2.434       .  S
Zr608       O621   2.449       .  S
Zr608       O614   2.409       .  S
Zr608       O615   2.398       .  S
Zr609       O611   2.437       .  S
Zr609       O633   2.438       .  S
Zr609       O635   2.392       .  S
Zr609       O613   2.390   1_455  S
Zr609       O616   2.395   1_455  S
Zr610       O636   2.436   1_655  S
Zr610       O637   2.435       .  S
Zr610       O612   2.436       .  S
Zr610       O613   2.388       .  S
Zr610       O614   2.382       .  S
O611        H648   0.990       .  S
O612        H643   0.990       .  S
O612        H657   0.990       .  S
O614        H640   0.964       .  S
O615       Zr625   2.378   1_655  S
O616       Zr625   2.366   1_655  S
O616        H641   0.966       .  S
C617       C1341   1.492       .  S
C618       C1390   1.476       .  S
C619       C1310   1.478       .  S
O620        H656   0.990       .  S
O621        C623   1.289       .  A
O622        C623   1.286       .  A
C623       C1370   1.485       .  S
O624       Zr625   2.438       .  S
O624        H653   0.991       .  S
Zr625       O628   2.437   1_455  S
Zr625       O629   2.440       .  S
Zr625       O630   2.414   1_455  S
O626        C631   1.285       .  A
O627        H644   0.990       .  S
O627        H659   0.990       .  S
O628        H645   0.990       .  S
O629        H649   0.990       .  S
O629        H658   0.990       .  S
O630        C631   1.281       .  A
C631       C1670   1.484       .  S
O632        H651   0.991       .  S
O632        H655   0.990       .  S
O633        H647   0.990       .  S
O633        H654   0.990       .  S
O634        C638   1.286       .  A
O635        C638   1.278   1_455  A
O636        H646   0.990   1_455  S
O637        H650   0.990       .  S
C638       C1321   1.475       .  S
Zr661       O662   2.442       .  S
Zr661       O663   2.480       .  S
Zr661       O664   2.435       .  S
Zr661       O667   2.446       .  S
Zr661       O669   2.377   1_655  S
Zr661       O670   2.383       .  S
Zr661       O671   2.426   1_655  S
Zr661       O672   2.411       .  S
O662        H718   0.990       .  S
O662        H726   0.991       .  S
O663        C683   1.290   1_655  A
O664        C685   1.284   1_655  A
O665       Zr675   2.423       .  S
O665        C684   1.283       .  A
O666       Zr674   2.459       .  S
O666        C685   1.289       .  A
O667        C684   1.286       .  A
O668       Zr676   2.382       .  S
O668        C683   1.274       .  A
O669       Zr674   2.383       .  S
O669       Zr676   2.385       .  S
O670       Zr675   2.392       .  S
O670       Zr676   2.386   1_655  S
O670        H705   0.966       .  S
O671       Zr674   2.396       .  S
O671       Zr691   2.387       .  S
O671        H708   0.963       .  S
O672       Zr675   2.375       .  S
O672       Zr691   2.396   1_655  S
Zr673       O698   2.442       .  S
Zr673       O692   2.447       .  S
Zr673       O700   2.465       .  S
Zr673       O688   2.459       .  S
Zr673       O679   2.401       .  S
Zr673       O680   2.412       .  S
Zr673       O681   2.388       .  S
Zr673       O682   2.391       .  S
Zr674       O693   2.437       .  S
Zr674       O686   2.437       .  S
Zr674       O687   2.411       .  S
Zr674       O680   2.415       .  S
Zr674       O681   2.403       .  S
Zr675       O677   2.437       .  S
Zr675       O699   2.438       .  S
Zr675       O701   2.397       .  S
Zr675       O679   2.391   1_655  S
Zr675       O682   2.407   1_655  S
Zr676       O702   2.436       .  S
Zr676       O703   2.436       .  S
Zr676       O678   2.438       .  S
Zr676       O679   2.383       .  S
Zr676       O680   2.379       .  S
O677        H714   0.991       .  S
O678        H709   0.991       .  S
O678        H723   0.990       .  S
O680        H706   0.965       .  S
O681       Zr691   2.372       .  S
O682       Zr691   2.374       .  S
O682        H707   0.966       .  S
C683       C1350   1.477       .  S
C684       C1221   1.487       .  S
C685       C1270   1.489       .  S
O686        H722   0.990       .  S
O687        C689   1.282       .  A
O688        C689   1.289       .  A
C689       C1241   1.482       .  S
O690       Zr691   2.438   1_655  S
O690        H719   0.990       .  S
Zr691       O694   2.439       .  S
Zr691       O695   2.439   1_455  S
Zr691       O696   2.429       .  S
O692        C697   1.285       .  A
O693        H710   0.991       .  S
O693        H725   0.990       .  S
O694        H711   0.990       .  S
O695        H715   0.990       .  S
O695        H724   0.990       .  S
O696        C697   1.283       .  A
C697       C1941   1.490       .  S
O698        H717   0.991       .  S
O698        H721   0.990       .  S
O699        H713   0.990       .  S
O699        H720   0.990       .  S
O700        C704   1.290       .  A
O701        C704   1.279   1_655  A
O702        H712   0.990       .  S
O703        H716   0.990       .  S
C704       C1281   1.481       .  S
Zr727       O728   2.440       .  S
Zr727       O729   2.451       .  S
Zr727       O730   2.464       .  S
Zr727       O733   2.458       .  S
Zr727       O735   2.389       .  S
Zr727       O736   2.392       .  S
Zr727       O737   2.420       .  S
Zr727       O738   2.398       .  S
O728        H784   0.990       .  S
O728        H792   0.991       .  S
O729        C749   1.287       .  A
O730        C751   1.289       .  A
O731       Zr741   2.421       .  S
O731        C750   1.283       .  A
O732       Zr740   2.410       .  S
O732        C751   1.279       .  A
O733        C750   1.289       .  A
O734       Zr742   2.429       .  S
O734        C749   1.283       .  A
O735       Zr740   2.400       .  S
O735       Zr742   2.373       .  S
O736       Zr741   2.397       .  S
O736       Zr742   2.380       .  S
O736        H771   0.966       .  S
O737       Zr740   2.398       .  S
O737       Zr757   2.379       .  S
O737        H774   0.965       .  S
O738       Zr741   2.390       .  S
O738       Zr757   2.382       .  S
Zr739       O764   2.445       .  S
Zr739       O758   2.486       .  S
Zr739       O766   2.444       .  S
Zr739       O754   2.447       .  S
Zr739       O745   2.405       .  S
Zr739       O746   2.433       .  S
Zr739       O747   2.382       .  S
Zr739       O748   2.385       .  S
Zr740       O759   2.437       .  S
Zr740       O752   2.434       .  S
Zr740       O753   2.415       .  S
Zr740       O746   2.392       .  S
Zr740       O747   2.397       .  S
Zr741       O743   2.437       .  S
Zr741       O765   2.439       .  S
Zr741       O767   2.433       .  S
Zr741       O745   2.374       .  S
Zr741       O748   2.393       .  S
Zr742       O768   2.434       .  S
Zr742       O769   2.436       .  S
Zr742       O744   2.440       .  S
Zr742       O745   2.389       .  S
Zr742       O746   2.401       .  S
O743        H780   0.990       .  S
O744        H775   0.990       .  S
O744        H789   0.990       .  S
O746        H772   0.964       .  S
O747       Zr757   2.385       .  S
O748       Zr757   2.387       .  S
O748        H773   0.966       .  S
C749       C1830   1.492       .  S
C750       C1230   1.489       .  S
C751       C1190   1.475       .  S
O752        H788   0.990       .  S
O753        C755   1.281       .  A
O754        C755   1.285       .  A
C755       C1250   1.481       .  S
O756       Zr757   2.433       .  S
O756        H785   0.990       .  S
Zr757       O760   2.434       .  S
Zr757       O761   2.438       .  S
Zr757       O762   2.383       .  S
O758        C763   1.291       .  A
O759        H776   0.990       .  S
O759        H791   0.990       .  S
O760        H777   0.989       .  S
O761        H781   0.990       .  S
O761        H790   0.990       .  S
O762        C763   1.275       .  A
C763       C1450   1.488       .  S
O764        H783   0.991       .  S
O764        H787   0.990       .  S
O765        H779   0.990       .  S
O765        H786   0.990       .  S
O766        C770   1.285       .  A
O767        C770   1.286       .  A
O768        H778   0.990       .  S
O769        H782   0.990       .  S
C770       C1210   1.476       .  S
Zr793       O794   2.444       .  S
Zr793       O795   2.459       .  S
Zr793       O796   2.464       .  S
Zr793       O799   2.439       .  S
Zr793       O801   2.386       .  S
Zr793       O802   2.391       .  S
Zr793       O803   2.416       .  S
Zr793       O804   2.398       .  S
O794        H850   0.990       .  S
O794        H858   0.991       .  S
O795        C815   1.288       .  A
O796        C817   1.288       .  A
O797       Zr807   2.439   1_554  S
O797        C816   1.287       .  A
O798       Zr806   2.391   1_455  S
O798        C817   1.277       .  A
O799        C816   1.286       .  A
O800       Zr808   2.433       .  S
O800        C815   1.285       .  A
O801       Zr806   2.407   1_455  S
O801       Zr808   2.376       .  S
O802       Zr807   2.389   1_554  S
O802       Zr808   2.385       .  S
O802        H837   0.965       .  S
O803       Zr806   2.398   1_455  S
O803       Zr823   2.403       .  S
O803        H840   0.966       .  S
O804       Zr807   2.387   1_554  S
O804       Zr823   2.384       .  S
Zr805       O830   2.441       .  S
Zr805       O824   2.470       .  S
Zr805       O832   2.418       .  S
Zr805       O820   2.460   1_556  S
Zr805       O811   2.397   1_655  S
Zr805       O812   2.416   1_556  S
Zr805       O813   2.371   1_556  S
Zr805       O814   2.391   1_655  S
Zr806       O825   2.436       .  S
Zr806       O818   2.434       .  S
Zr806       O819   2.415       .  S
Zr806       O812   2.389       .  S
Zr806       O813   2.392       .  S
Zr807       O809   2.437       .  S
Zr807       O831   2.440       .  S
Zr807       O833   2.443       .  S
Zr807       O811   2.375       .  S
Zr807       O814   2.388       .  S
Zr808       O834   2.435   1_554  S
Zr808       O835   2.437   1_454  S
Zr808       O810   2.438   1_455  S
Zr808       O811   2.376   1_554  S
Zr808       O812   2.408   1_455  S
O809        H846   0.990       .  S
O810        H841   0.991       .  S
O810        H855   0.990       .  S
O812        H838   0.965       .  S
O813       Zr823   2.382   1_655  S
O814       Zr823   2.386   1_556  S
O814        H839   0.965       .  S
C815       C1521   1.496       .  S
C816       C1141   1.481       .  S
C817       C1301   1.475       .  S
O818        H854   0.990       .  S
O819        C821   1.281       .  A
O820        C821   1.287       .  A
C821       C1121   1.487       .  S
O822       Zr823   2.438       .  S
O822        H851   0.991       .  S
Zr823       O826   2.437       .  S
Zr823       O827   2.441       .  S
Zr823       O828   2.409       .  S
O824        C829   1.289   1_656  A
O825        H842   0.990       .  S
O825        H857   0.990       .  S
O826        H843   0.990       .  S
O827        H847   0.990       .  S
O827        H856   0.990       .  S
O828        C829   1.280       .  A
C829       C1170   1.486   1_554  S
O830        H849   0.991       .  S
O830        H853   0.990       .  S
O831        H845   0.990       .  S
O831        H852   0.990       .  S
O832        C836   1.282   1_655  A
O833        C836   1.288       .  A
O834        H844   0.990       .  S
O835        H848   0.990       .  S
C836       C1330   1.470       .  S
Zr859       O860   2.442       .  S
Zr859       O861   2.436       .  S
Zr859       O862   2.472       .  S
Zr859       O865   2.459       .  S
Zr859       O867   2.393       .  S
Zr859       O868   2.394       .  S
Zr859       O869   2.414       .  S
Zr859       O870   2.397       .  S
O860        H916   0.990       .  S
O860        H924   0.990       .  S
O861        C881   1.283       .  A
O862        C883   1.290       .  A
O863       Zr873   2.420   1_554  S
O863        C882   1.284       .  A
O864       Zr872   2.408       .  S
O864        C883   1.281       .  A
O865        C882   1.290       .  A
O866       Zr874   2.434       .  S
O866        C881   1.284       .  A
O867       Zr872   2.406       .  S
O867       Zr874   2.373       .  S
O868       Zr873   2.400   1_554  S
O868       Zr874   2.378       .  S
O868        H903   0.966       .  S
O869       Zr872   2.402       .  S
O869       Zr889   2.371       .  S
O869        H906   0.965       .  S
O870       Zr873   2.391   1_554  S
O870       Zr889   2.376       .  S
Zr871       O896   2.443   1_554  S
Zr871       O890   2.486       .  S
Zr871       O898   2.452   1_554  S
Zr871       O886   2.438       .  S
Zr871       O877   2.403   1_554  S
Zr871       O878   2.432       .  S
Zr871       O879   2.381       .  S
Zr871       O880   2.380       .  S
Zr872       O891   2.436       .  S
Zr872       O884   2.436       .  S
Zr872       O885   2.440       .  S
Zr872       O878   2.391       .  S
Zr872       O879   2.394       .  S
Zr873       O875   2.438       .  S
Zr873       O897   2.437       .  S
Zr873       O899   2.438       .  S
Zr873       O877   2.370       .  S
Zr873       O880   2.391   1_556  S
Zr874       O900   2.434   1_554  S
Zr874       O901   2.435   1_554  S
Zr874       O876   2.436       .  S
Zr874       O877   2.390   1_554  S
Zr874       O878   2.404       .  S
O875        H912   0.990       .  S
O876        H907   0.990       .  S
O876        H921   0.990       .  S
O878        H904   0.965       .  S
O879       Zr889   2.390       .  S
O880       Zr889   2.390       .  S
O880        H905   0.965       .  S
C881       C1470   1.484       .  S
C882       C1130   1.487       .  S
C883       C1410   1.479       .  S
O884        H920   0.990       .  S
O885        C887   1.285       .  A
O886        C887   1.284       .  A
C887       C1150   1.485       .  S
O888       Zr889   2.439       .  S
O888        H917   0.990       .  S
Zr889       O892   2.436       .  S
Zr889       O893   2.440       .  S
Zr889       O894   2.378       .  S
O890        C895   1.292       .  A
O891        H908   0.990       .  S
O891        H923   0.990       .  S
O892        H909   0.990       .  S
O893        H913   0.990       .  S
O893        H922   0.990       .  S
O894        C895   1.275       .  A
C895       C1101   1.490       .  S
O896        H915   0.991       .  S
O896        H919   0.990       .  S
O897        H911   0.990       .  S
O897        H918   0.990       .  S
O898        C902   1.287       .  A
O899        C902   1.286       .  A
O900        H910   0.990       .  S
O901        H914   0.990       .  S
C902       C1430   1.480       .  S
Zr925       O926   2.443   1_556  S
Zr925       O927   2.472       .  S
Zr925       O928   2.428   1_556  S
Zr925       O931   2.424       .  S
Zr925       O933   2.371       .  S
Zr925       O934   2.380       .  S
Zr925       O935   2.420   1_556  S
Zr925       O936   2.418       .  S
O926        H982   0.990       .  S
O926        H990   0.991       .  S
O927        C947   1.288       .  A
O928        C949   1.283       .  A
O929       Zr939   2.420       .  S
O929        C948   1.283       .  A
O930       Zr938   2.458   1_554  S
O930        C949   1.288       .  A
O931        C948   1.283       .  A
O932       Zr940   2.392       .  S
O932        C947   1.273       .  A
O933       Zr938   2.390       .  S
O933       Zr940   2.396       .  S
O934       Zr939   2.386       .  S
O934       Zr940   2.378       .  S
O934        H969   0.966       .  S
O935       Zr938   2.395   1_554  S
O935       Zr955   2.394   1_554  S
O935        H972   0.963       .  S
O936       Zr939   2.381       .  S
O936       Zr955   2.403       .  S
Zr937       O962   2.441       .  S
Zr937       O956   2.438       .  S
Zr937       O964   2.459       .  S
Zr937       O952   2.455       .  S
Zr937       O943   2.401       .  S
Zr937       O944   2.409       .  S
Zr937       O945   2.382       .  S
Zr937       O946   2.388       .  S
Zr938       O957   2.437   1_556  S
Zr938       O950   2.435   1_556  S
Zr938       O951   2.411       .  S
Zr938       O944   2.412       .  S
Zr938       O945   2.405       .  S
Zr939       O941   2.436       .  S
Zr939       O963   2.440       .  S
Zr939       O965   2.387       .  S
Zr939       O943   2.394       .  S
Zr939       O946   2.398       .  S
Zr940       O966   2.437       .  S
Zr940       O967   2.436       .  S
Zr940       O942   2.438       .  S
Zr940       O943   2.376       .  S
Zr940       O944   2.388       .  S
O941        H978   0.990       .  S
O942        H973   0.991       .  S
O942        H987   0.990       .  S
O944        H970   0.965       .  S
O945       Zr955   2.375       .  S
O946       Zr955   2.362       .  S
O946        H971   0.966       .  S
C947       C1110   1.479       .  S
C948       C1061   1.480       .  S
C949       C1181   1.488       .  S
O950        H986   0.990       .  S
O951        C953   1.282       .  A
O952        C953   1.288       .  A
C953       C1081   1.483       .  S
O954       Zr955   2.438   1_554  S
O954        H983   0.991       .  S
Zr955       O958   2.436   1_556  S
Zr955       O959   2.440       .  S
Zr955       O960   2.433       .  S
O956        C961   1.284       .  A
O957        H974   0.990       .  S
O957        H989   0.990       .  S
O958        H975   0.990       .  S
O959        H979   0.990       .  S
O959        H988   0.989       .  S
O960        C961   1.283       .  A
C961       C1630   1.489       .  S
O962        H981   0.990       .  S
O962        H985   0.991       .  S
O963        H977   0.990       .  S
O963        H984   0.990       .  S
O964        C968   1.289       .  A
O965        C968   1.278       .  A
O966        H976   0.990       .  S
O967        H980   0.990       .  S
C968       C1201   1.477       .  S
Zr991       O992   2.442   1_556  S
Zr991       O993   2.463       .  S
Zr991       O994   2.487   1_556  S
Zr991       O997   2.448       .  S
Zr991       O999   2.387       .  S
Zr991      O1000   2.392       .  S
Zr991      O1001   2.415   1_556  S
Zr991      O1002   2.412       .  S
O992       H1048   0.990       .  S
O992       H1056   0.990       .  S
O993       C1013   1.289       .  A
O994       C1015   1.292       .  A
O995      Zr1005   2.413       .  S
O995       C1014   1.281       .  A
O996      Zr1004   2.397       .  S
O996       C1015   1.277   1_455  A
O997       C1014   1.288       .  A
O998      Zr1006   2.415       .  S
O998       C1013   1.281       .  A
O999      Zr1004   2.402   1_656  S
O999      Zr1006   2.383       .  S
O1000     Zr1005   2.394       .  S
O1000     Zr1006   2.374       .  S
O1000      H1035   0.966       .  S
O1001     Zr1004   2.404   1_655  S
O1001     Zr1021   2.385   1_554  S
O1001      H1038   0.964       .  S
O1002     Zr1005   2.392       .  S
O1002     Zr1021   2.388       .  S
Zr1003     O1028   2.443       .  S
Zr1003     O1022   2.478       .  S
Zr1003     O1030   2.446       .  S
Zr1003     O1018   2.452       .  S
Zr1003     O1009   2.402   1_455  S
Zr1003     O1010   2.423       .  S
Zr1003     O1011   2.378       .  S
Zr1003     O1012   2.388   1_455  S
Zr1004     O1023   2.437       .  S
Zr1004     O1016   2.436       .  S
Zr1004     O1017   2.418   1_554  S
Zr1004     O1010   2.391   1_554  S
Zr1004     O1011   2.399   1_554  S
Zr1005     O1007   2.437       .  S
Zr1005     O1029   2.440       .  S
Zr1005     O1031   2.430       .  S
Zr1005     O1009   2.376       .  S
Zr1005     O1012   2.390       .  S
Zr1006     O1032   2.436       .  S
Zr1006     O1033   2.436   1_655  S
Zr1006     O1008   2.437   1_655  S
Zr1006     O1009   2.381       .  S
Zr1006     O1010   2.396   1_655  S
O1007      H1044   0.990       .  S
O1008      H1039   0.990       .  S
O1008      H1053   0.990       .  S
O1010      H1036   0.964       .  S
O1011     Zr1021   2.388   1_455  S
O1012     Zr1021   2.382       .  S
O1012      H1037   0.966       .  S
C1013      C1541   1.494       .  S
C1014      C1070   1.483       .  S
C1015      C1261   1.475       .  S
O1016      H1052   0.990       .  S
O1017      C1019   1.282       .  A
O1018      C1019   1.286       .  A
C1019      C1090   1.484       .  S
O1020     Zr1021   2.439   1_554  S
O1020      H1049   0.990       .  S
Zr1021     O1024   2.438   1_556  S
Zr1021     O1025   2.440       .  S
Zr1021     O1026   2.396       .  S
O1022      C1027   1.290       .  A
O1023      H1040   0.991       .  S
O1023      H1055   0.990       .  S
O1024      H1041   0.990       .  S
O1025      H1045   0.990       .  S
O1025      H1054   0.990       .  S
O1026      C1027   1.276   1_655  A
C1027      C1161   1.474       .  S
O1028      H1047   0.991       .  S
O1028      H1051   0.990       .  S
O1029      H1043   0.990       .  S
O1029      H1050   0.990       .  S
O1030      C1034   1.286   1_455  A
O1031      C1034   1.286       .  A
O1032      H1042   0.990       .  S
O1033      H1046   0.990       .  S
C1034      C1290   1.477       .  S
C1057      C1058   1.404       .  A
C1057      C1062   1.396       .  A
C1057      H1067   1.083       .  S
C1058      C1063   1.482       .  S
C1058      C1059   1.405       .  A
C1059      C1060   1.395       .  A
C1059      H1064   1.083       .  S
C1060      C1061   1.405       .  A
C1060      H1065   1.083       .  S
C1061      C1062   1.407       .  A
C1062      H1066   1.083       .  S
C1063      C1068   1.406       .  A
C1063      C1072   1.403       .  A
C1068      C1069   1.399       .  A
C1068      H1073   1.083   1_556  S
C1069      C1070   1.405       .  A
C1069      H1074   1.083   1_556  S
C1070      C1071   1.408       .  A
C1071      C1072   1.394       .  A
C1071      H1075   1.083       .  S
C1072      H1076   1.083       .  S
C1077      C1078   1.404       .  A
C1077      C1082   1.394       .  A
C1077      H1087   1.083   1_556  S
C1078      C1083   1.487       .  S
C1078      C1079   1.407       .  A
C1079      C1080   1.399       .  A
C1079      H1084   1.083       .  S
C1080      C1081   1.405       .  A
C1080      H1085   1.083       .  S
C1081      C1082   1.407       .  A
C1082      H1086   1.083   1_556  S
C1083      C1088   1.406       .  A
C1083      C1092   1.405       .  A
C1088      C1089   1.399       .  A
C1088      H1093   1.083       .  S
C1089      C1090   1.406       .  A
C1089      H1094   1.083       .  S
C1090      C1091   1.407       .  A
C1091      C1092   1.396       .  A
C1091      H1095   1.083   1_556  S
C1092      H1096   1.083   1_556  S
C1097      C1098   1.402       .  A
C1097      C1102   1.393       .  A
C1097      H1107   1.083       .  S
C1098      C1103   1.493       .  S
C1098      C1099   1.412   1_554  A
C1099      C1100   1.406       .  A
C1099      H1104   1.082       .  S
C1100      C1101   1.404   1_556  A
C1100      H1105   1.083       .  S
C1101      C1102   1.411       .  A
C1102      H1106   1.083       .  S
C1103      C1108   1.410       .  A
C1103      C1112   1.406   1_554  A
C1108      C1109   1.401       .  A
C1108      H1113   1.082       .  S
C1109      C1110   1.402   1_554  A
C1109      H1114   1.083       .  S
C1110      C1111   1.407       .  A
C1111      C1112   1.398       .  A
C1111      H1115   1.083       .  S
C1112      H1116   1.083       .  S
C1117      C1118   1.407       .  A
C1117      C1122   1.400       .  A
C1117      H1127   1.082       .  S
C1118      C1123   1.497       .  S
C1118      C1119   1.410       .  A
C1119      C1120   1.400       .  A
C1119      H1124   1.082   1_554  S
C1120      C1121   1.405       .  A
C1120      H1125   1.083   1_554  S
C1121      C1122   1.407       .  A
C1122      H1126   1.083       .  S
C1123      C1128   1.412       .  A
C1123      C1132   1.406       .  A
C1128      C1129   1.404       .  A
C1128      H1133   1.082       .  S
C1129      C1130   1.405       .  A
C1129      H1134   1.083       .  S
C1130      C1131   1.407       .  A
C1131      C1132   1.396       .  A
C1131      H1135   1.083   1_554  S
C1132      H1136   1.082   1_554  S
C1137      C1138   1.408       .  A
C1137      C1142   1.400       .  A
C1137      H1147   1.083       .  S
C1138      C1143   1.491       .  S
C1138      C1139   1.407       .  A
C1139      C1140   1.396       .  A
C1139      H1144   1.082       .  S
C1140      C1141   1.404       .  A
C1140      H1145   1.083   1_554  S
C1141      C1142   1.406       .  A
C1142      H1146   1.083       .  S
C1143      C1148   1.406       .  A
C1143      C1152   1.408       .  A
C1148      C1149   1.396       .  A
C1148      H1153   1.083   1_554  S
C1149      C1150   1.407       .  A
C1149      H1154   1.083       .  S
C1150      C1151   1.406       .  A
C1151      C1152   1.401       .  A
C1151      H1155   1.083       .  S
C1152      H1156   1.082       .  S
C1157      C1158   1.412       .  A
C1157      C1162   1.398       .  A
C1157      H1167   1.082       .  S
C1158      C1163   1.501       .  S
C1158      C1159   1.409   1_455  A
C1159      C1160   1.405       .  A
C1159      H1164   1.082       .  S
C1160      C1161   1.405   1_655  A
C1160      H1165   1.083       .  S
C1161      C1162   1.399       .  A
C1162      H1166   1.084       .  S
C1163      C1168   1.405       .  A
C1163      C1172   1.415   1_455  A
C1168      C1169   1.393       .  A
C1168      H1173   1.082       .  S
C1169      C1170   1.406       .  A
C1169      H1174   1.083       .  S
C1170      C1171   1.405   1_455  A
C1171      C1172   1.409       .  A
C1171      H1175   1.083       .  S
C1172      H1176   1.082       .  S
C1177      C1178   1.404       .  A
C1177      C1182   1.397       .  A
C1177      H1187   1.082       .  S
C1178      C1183   1.493       .  S
C1178      C1179   1.410       .  A
C1179      C1180   1.401       .  A
C1179      H1184   1.082       .  S
C1180      C1181   1.405       .  A
C1180      H1185   1.083       .  S
C1181      C1182   1.409       .  A
C1182      H1186   1.083       .  S
C1183      C1188   1.409       .  A
C1183      C1192   1.407       .  A
C1188      C1189   1.400       .  A
C1188      H1193   1.082       .  S
C1189      C1190   1.403       .  A
C1189      H1194   1.083       .  S
C1190      C1191   1.404       .  A
C1191      C1192   1.398       .  A
C1191      H1195   1.083       .  S
C1192      H1196   1.082       .  S
C1197      C1198   1.405       .  A
C1197      C1202   1.388       .  A
C1197      H1207   1.082       .  S
C1198      C1203   1.492       .  S
C1198      C1199   1.412       .  A
C1199      C1200   1.404       .  A
C1199      H1204   1.082       .  S
C1200      C1201   1.403       .  A
C1200      H1205   1.083       .  S
C1201      C1202   1.405       .  A
C1202      H1206   1.084       .  S
C1203      C1208   1.408       .  A
C1203      C1212   1.409       .  A
C1208      C1209   1.393       .  A
C1208      H1213   1.082       .  S
C1209      C1210   1.402       .  A
C1209      H1214   1.083       .  S
C1210      C1211   1.404       .  A
C1211      C1212   1.401       .  A
C1211      H1215   1.083       .  S
C1212      H1216   1.082       .  S
C1217      C1218   1.406       .  A
C1217      C1222   1.401       .  A
C1217      H1227   1.083       .  S
C1218      C1223   1.488       .  S
C1218      C1219   1.406       .  A
C1219      C1220   1.397       .  A
C1219      H1224   1.083       .  S
C1220      C1221   1.407       .  A
C1220      H1225   1.083       .  S
C1221      C1222   1.408       .  A
C1222      H1226   1.083       .  S
C1223      C1228   1.408       .  A
C1223      C1232   1.403       .  A
C1228      C1229   1.404       .  A
C1228      H1233   1.083       .  S
C1229      C1230   1.407       .  A
C1229      H1234   1.083       .  S
C1230      C1231   1.409       .  A
C1231      C1232   1.396       .  A
C1231      H1235   1.083       .  S
C1232      H1236   1.083       .  S
C1237      C1238   1.406       .  A
C1237      C1242   1.400       .  A
C1237      H1247   1.083       .  S
C1238      C1243   1.480       .  S
C1238      C1239   1.401       .  A
C1239      C1240   1.393       .  A
C1239      H1244   1.083       .  S
C1240      C1241   1.408       .  A
C1240      H1245   1.083       .  S
C1241      C1242   1.406       .  A
C1242      H1246   1.083       .  S
C1243      C1248   1.404       .  A
C1243      C1252   1.404       .  A
C1248      C1249   1.396       .  A
C1248      H1253   1.083       .  S
C1249      C1250   1.407       .  A
C1249      H1254   1.083       .  S
C1250      C1251   1.406       .  A
C1251      C1252   1.396       .  A
C1251      H1255   1.083       .  S
C1252      H1256   1.083       .  S
C1257      C1258   1.410       .  A
C1257      C1262   1.403       .  A
C1257      H1267   1.083       .  S
C1258      C1263   1.494       .  S
C1258      C1259   1.406   1_655  A
C1259      C1260   1.398   1_455  A
C1259      H1264   1.083       .  S
C1260      C1261   1.404       .  A
C1260      H1265   1.083   1_655  S
C1261      C1262   1.404       .  A
C1262      H1266   1.083       .  S
C1263      C1268   1.404       .  A
C1263      C1272   1.410   1_655  A
C1268      C1269   1.398       .  A
C1268      H1273   1.083       .  S
C1269      C1270   1.410   1_655  A
C1269      H1274   1.083       .  S
C1270      C1271   1.405       .  A
C1271      C1272   1.402       .  A
C1271      H1275   1.083       .  S
C1272      H1276   1.083       .  S
C1277      C1278   1.410       .  A
C1277      C1282   1.405       .  A
C1277      H1287   1.082       .  S
C1278      C1283   1.491       .  S
C1278      C1279   1.405   1_455  A
C1279      C1280   1.392       .  A
C1279      H1284   1.082       .  S
C1280      C1281   1.406   1_655  A
C1280      H1285   1.084       .  S
C1281      C1282   1.405       .  A
C1282      H1286   1.083       .  S
C1283      C1288   1.409       .  A
C1283      C1292   1.406   1_455  A
C1288      C1289   1.403       .  A
C1288      H1293   1.082       .  S
C1289      C1290   1.405   1_455  A
C1289      H1294   1.083       .  S
C1290      C1291   1.403       .  A
C1291      C1292   1.393       .  A
C1291      H1295   1.083       .  S
C1292      H1296   1.083       .  S
C1297      C1298   1.410       .  A
C1297      C1302   1.401       .  A
C1297      H1307   1.082       .  S
C1298      C1303   1.487       .  S
C1298      C1299   1.403   1_455  A
C1299      C1300   1.393       .  A
C1299      H1304   1.083       .  S
C1300      C1301   1.406   1_655  A
C1300      H1305   1.083       .  S
C1301      C1302   1.403       .  A
C1302      H1306   1.083       .  S
C1303      C1308   1.401       .  A
C1303      C1312   1.412   1_455  A
C1308      C1309   1.393       .  A
C1308      H1313   1.083       .  S
C1309      C1310   1.408   1_455  A
C1309      H1314   1.083       .  S
C1310      C1311   1.401       .  A
C1311      C1312   1.402       .  A
C1311      H1315   1.083       .  S
C1312      H1316   1.082       .  S
C1317      C1318   1.404   1_455  A
C1317      C1322   1.388       .  A
C1317      H1327   1.082       .  S
C1318      C1323   1.485       .  S
C1318      C1319   1.410       .  A
C1319      C1320   1.402       .  A
C1319      H1324   1.082       .  S
C1320      C1321   1.404       .  A
C1320      H1325   1.083       .  S
C1321      C1322   1.404   1_655  A
C1322      H1326   1.083       .  S
C1323      C1328   1.407   1_655  A
C1323      C1332   1.406       .  A
C1328      C1329   1.393       .  A
C1328      H1333   1.082       .  S
C1329      C1330   1.400       .  A
C1329      H1334   1.083       .  S
C1330      C1331   1.405   1_455  A
C1331      C1332   1.396       .  A
C1331      H1335   1.083       .  S
C1332      H1336   1.082       .  S
C1337      C1338   1.411       .  A
C1337      C1342   1.411       .  A
C1337      H1347   1.083       .  S
C1338      C1343   1.489       .  S
C1338      C1339   1.400   1_455  A
C1339      C1340   1.390       .  A
C1339      H1344   1.083       .  S
C1340      C1341   1.409   1_655  A
C1340      H1345   1.083       .  S
C1341      C1342   1.409       .  A
C1342      H1346   1.083       .  S
C1343      C1348   1.402       .  A
C1343      C1352   1.411   1_455  A
C1348      C1349   1.399       .  A
C1348      H1353   1.083       .  S
C1349      C1350   1.409       .  A
C1349      H1354   1.084       .  S
C1350      C1351   1.400   1_455  A
C1351      C1352   1.402       .  A
C1351      H1355   1.083       .  S
C1352      H1356   1.083       .  S
C1357      C1358   1.407       .  A
C1357      C1362   1.402       .  A
C1357      H1367   1.083       .  S
C1358      C1363   1.492       .  S
C1358      C1359   1.406       .  A
C1359      C1360   1.397       .  A
C1359      H1364   1.083       .  S
C1360      C1361   1.406       .  A
C1360      H1365   1.083       .  S
C1361      C1362   1.408       .  A
C1362      H1366   1.083       .  S
C1363      C1368   1.409       .  A
C1363      C1372   1.406       .  A
C1368      C1369   1.403       .  A
C1368      H1373   1.083       .  S
C1369      C1370   1.406       .  A
C1369      H1374   1.083       .  S
C1370      C1371   1.406       .  A
C1371      C1372   1.395       .  A
C1371      H1375   1.083       .  S
C1372      H1376   1.083       .  S
C1377      C1378   1.405       .  A
C1377      C1382   1.396       .  A
C1377      H1387   1.083       .  S
C1378      C1383   1.484       .  S
C1378      C1379   1.407       .  A
C1379      C1380   1.393       .  A
C1379      H1384   1.082       .  S
C1380      C1381   1.402       .  A
C1380      H1385   1.083       .  S
C1381      C1382   1.407       .  A
C1382      H1386   1.083       .  S
C1383      C1388   1.409       .  A
C1383      C1392   1.403       .  A
C1388      C1389   1.400       .  A
C1388      H1393   1.082       .  S
C1389      C1390   1.404       .  A
C1389      H1394   1.083       .  S
C1390      C1391   1.405       .  A
C1391      C1392   1.390       .  A
C1391      H1395   1.083       .  S
C1392      H1396   1.082       .  S
C1397      C1398   1.413       .  A
C1397      C1402   1.403       .  A
C1397      H1407   1.082       .  S
C1398      C1403   1.496       .  S
C1398      C1399   1.403       .  A
C1399      C1400   1.396       .  A
C1399      H1404   1.082       .  S
C1400      C1401   1.410       .  A
C1400      H1405   1.082       .  S
C1401      C1402   1.404       .  A
C1402      H1406   1.083       .  S
C1403      C1408   1.406       .  A
C1403      C1412   1.412       .  A
C1408      C1409   1.395       .  A
C1408      H1413   1.082       .  S
C1409      C1410   1.404       .  A
C1409      H1414   1.083       .  S
C1410      C1411   1.404       .  A
C1411      C1412   1.403       .  A
C1411      H1415   1.083       .  S
C1412      H1416   1.082       .  S
C1417      C1418   1.412       .  A
C1417      C1422   1.406       .  A
C1417      H1427   1.082       .  S
C1418      C1423   1.498       .  S
C1418      C1419   1.406       .  A
C1419      C1420   1.395       .  A
C1419      H1424   1.082       .  S
C1420      C1421   1.406       .  A
C1420      H1425   1.084       .  S
C1421      C1422   1.404       .  A
C1422      H1426   1.083       .  S
C1423      C1428   1.411       .  A
C1423      C1432   1.409       .  A
C1428      C1429   1.404       .  A
C1428      H1433   1.082       .  S
C1429      C1430   1.404       .  A
C1429      H1434   1.083       .  S
C1430      C1431   1.404       .  A
C1431      C1432   1.398       .  A
C1431      H1435   1.084       .  S
C1432      H1436   1.082       .  S
C1437      C1438   1.409       .  A
C1437      C1442   1.401       .  A
C1437      H1447   1.082       .  S
C1438      C1443   1.501       .  S
C1438      C1439   1.413       .  A
C1439      C1440   1.401       .  A
C1439      H1444   1.082       .  S
C1440      C1441   1.400       .  A
C1440      H1445   1.083       .  S
C1441      C1442   1.404       .  A
C1442      H1446   1.083       .  S
C1443      C1448   1.415       .  A
C1443      C1452   1.405       .  A
C1448      C1449   1.408       .  A
C1448      H1453   1.082       .  S
C1449      C1450   1.404       .  A
C1449      H1454   1.083       .  S
C1450      C1451   1.408       .  A
C1451      C1452   1.394       .  A
C1451      H1455   1.083       .  S
C1452      H1456   1.082       .  S
C1457      C1458   1.407       .  A
C1457      C1462   1.401       .  A
C1457      H1467   1.083       .  S
C1458      C1463   1.491       .  S
C1458      C1459   1.405       .  A
C1459      C1460   1.400       .  A
C1459      H1464   1.083       .  S
C1460      C1461   1.409       .  A
C1460      H1465   1.083       .  S
C1461      C1462   1.406       .  A
C1462      H1466   1.083       .  S
C1463      C1468   1.406       .  A
C1463      C1472   1.408       .  A
C1468      C1469   1.400       .  A
C1468      H1473   1.083       .  S
C1469      C1470   1.406       .  A
C1469      H1474   1.083       .  S
C1470      C1471   1.405       .  A
C1471      C1472   1.402       .  A
C1471      H1475   1.083       .  S
C1472      H1476   1.083       .  S
C1477      C1478   1.406       .  A
C1477      C1482   1.403       .  A
C1477      H1487   1.083       .  S
C1478      C1483   1.483   1_655  S
C1478      C1479   1.402       .  A
C1479      C1480   1.394       .  A
C1479      H1484   1.083       .  S
C1480      C1481   1.408       .  A
C1480      H1485   1.083       .  S
C1481      C1482   1.407       .  A
C1482      H1486   1.083       .  S
C1483      C1488   1.403       .  A
C1483      C1492   1.405       .  A
C1488      C1489   1.394       .  A
C1488      H1493   1.083       .  S
C1489      C1490   1.408       .  A
C1489      H1494   1.083       .  S
C1490      C1491   1.408       .  A
C1491      C1492   1.403       .  A
C1491      H1495   1.083   1_554  S
C1492      H1496   1.083   1_554  S
C1497      C1498   1.406       .  A
C1497      C1502   1.403       .  A
C1497      H1507   1.083       .  S
C1498      C1503   1.484       .  S
C1498      C1499   1.404       .  A
C1499      C1500   1.393       .  A
C1499      H1504   1.083   1_554  S
C1500      C1501   1.407       .  A
C1500      H1505   1.083   1_554  S
C1501      C1502   1.408       .  A
C1502      H1506   1.083       .  S
C1503      C1508   1.408       .  A
C1503      C1512   1.402       .  A
C1508      C1509   1.404       .  A
C1508      H1513   1.083       .  S
C1509      C1510   1.407       .  A
C1509      H1514   1.083       .  S
C1510      C1511   1.408       .  A
C1511      C1512   1.390       .  A
C1511      H1515   1.083   1_554  S
C1512      H1516   1.083   1_554  S
C1517      C1518   1.410       .  A
C1517      C1522   1.399       .  A
C1517      H1527   1.081       .  S
C1518      C1523   1.507       .  S
C1518      C1519   1.412       .  A
C1519      C1520   1.407       .  A
C1519      H1524   1.082       .  S
C1520      C1521   1.408       .  A
C1520      H1525   1.083       .  S
C1521      C1522   1.406       .  A
C1522      H1526   1.083       .  S
C1523      C1528   1.410       .  A
C1523      C1532   1.413       .  A
C1528      C1529   1.397       .  A
C1528      H1533   1.081       .  S
C1529      C1530   1.404       .  A
C1529      H1534   1.083       .  S
C1530      C1531   1.407       .  A
C1531      C1532   1.407       .  A
C1531      H1535   1.083       .  S
C1532      H1536   1.082       .  S
C1537      C1538   1.411       .  A
C1537      C1542   1.405       .  A
C1537      H1547   1.082   1_556  S
C1538      C1543   1.499       .  S
C1538      C1539   1.406       .  A
C1539      C1540   1.398       .  A
C1539      H1544   1.082       .  S
C1540      C1541   1.409       .  A
C1540      H1545   1.083       .  S
C1541      C1542   1.406       .  A
C1542      H1546   1.083   1_556  S
C1543      C1548   1.408       .  A
C1543      C1552   1.409       .  A
C1548      C1549   1.402       .  A
C1548      H1553   1.082       .  S
C1549      C1550   1.406       .  A
C1549      H1554   1.083       .  S
C1550      C1551   1.406       .  A
C1551      C1552   1.401       .  A
C1551      H1555   1.083       .  S
C1552      H1556   1.082       .  S
C1557      C1558   1.409   1_556  A
C1557      C1562   1.397       .  A
C1557      H1567   1.081       .  S
C1558      C1563   1.505   1_565  S
C1558      C1559   1.416       .  A
C1559      C1560   1.402       .  A
C1559      H1564   1.081       .  S
C1560      C1561   1.400   1_554  A
C1560      H1565   1.084       .  S
C1561      C1562   1.402       .  A
C1562      H1566   1.084       .  S
C1563      C1568   1.416   1_554  A
C1563      C1572   1.406       .  A
C1568      C1569   1.407       .  A
C1568      H1573   1.081       .  S
C1569      C1570   1.404   1_556  A
C1569      H1574   1.083       .  S
C1570      C1571   1.408       .  A
C1571      C1572   1.394       .  A
C1571      H1575   1.083       .  S
C1572      H1576   1.080       .  S
C1577      C1578   1.406       .  A
C1577      C1582   1.403       .  A
C1577      H1587   1.083   1_556  S
C1578      C1583   1.489       .  S
C1578      C1579   1.405       .  A
C1579      C1580   1.397       .  A
C1579      H1584   1.083       .  S
C1580      C1581   1.407       .  A
C1580      H1585   1.083       .  S
C1581      C1582   1.409       .  A
C1582      H1586   1.083   1_556  S
C1583      C1588   1.408       .  A
C1583      C1592   1.403       .  A
C1588      C1589   1.404       .  A
C1588      H1593   1.083       .  S
C1589      C1590   1.407       .  A
C1589      H1594   1.083       .  S
C1590      C1591   1.408       .  A
C1591      C1592   1.395       .  A
C1591      H1595   1.083       .  S
C1592      H1596   1.083       .  S
C1597      C1598   1.406       .  A
C1597      C1602   1.395       .  A
C1597      H1607   1.082       .  S
C1598      C1603   1.493   1_455  S
C1598      C1599   1.410       .  A
C1599      C1600   1.402       .  A
C1599      H1604   1.082   1_556  S
C1600      C1601   1.404       .  A
C1600      H1605   1.083   1_556  S
C1601      C1602   1.407       .  A
C1602      H1606   1.083       .  S
C1603      C1608   1.409       .  A
C1603      C1612   1.407       .  A
C1608      C1609   1.397       .  A
C1608      H1613   1.082       .  S
C1609      C1610   1.404       .  A
C1609      H1614   1.083       .  S
C1610      C1611   1.406       .  A
C1611      C1612   1.399       .  A
C1611      H1615   1.083   1_556  S
C1612      H1616   1.082   1_556  S
C1617      C1618   1.406       .  A
C1617      C1622   1.401       .  A
C1617      H1627   1.083       .  S
C1618      C1623   1.492       .  S
C1618      C1619   1.407       .  A
C1619      C1620   1.400       .  A
C1619      H1624   1.083       .  S
C1620      C1621   1.407       .  A
C1620      H1625   1.083       .  S
C1621      C1622   1.408       .  A
C1622      H1626   1.083       .  S
C1623      C1628   1.406       .  A
C1623      C1632   1.407       .  A
C1628      C1629   1.401       .  A
C1628      H1633   1.083       .  S
C1629      C1630   1.407       .  A
C1629      H1634   1.083       .  S
C1630      C1631   1.407       .  A
C1631      C1632   1.401       .  A
C1631      H1635   1.083       .  S
C1632      H1636   1.083       .  S
C1637      C1638   1.413       .  A
C1637      C1642   1.407       .  A
C1637      H1647   1.083       .  S
C1638      C1643   1.493   1_565  S
C1638      C1639   1.402       .  A
C1639      C1640   1.394       .  A
C1639      H1644   1.083       .  S
C1640      C1641   1.410       .  A
C1640      H1645   1.083       .  S
C1641      C1642   1.405       .  A
C1642      H1646   1.083       .  S
C1643      C1648   1.401       .  A
C1643      C1652   1.413       .  A
C1648      C1649   1.394       .  A
C1648      H1653   1.083       .  S
C1649      C1650   1.412       .  A
C1649      H1654   1.083       .  S
C1650      C1651   1.404       .  A
C1651      C1652   1.407       .  A
C1651      H1655   1.083       .  S
C1652      H1656   1.083       .  S
C1657      C1658   1.404       .  A
C1657      C1662   1.398       .  A
C1657      H1667   1.083       .  S
C1658      C1663   1.487       .  S
C1658      C1659   1.408       .  A
C1659      C1660   1.398       .  A
C1659      H1664   1.083       .  S
C1660      C1661   1.403       .  A
C1660      H1665   1.083       .  S
C1661      C1662   1.408       .  A
C1662      H1666   1.083       .  S
C1663      C1668   1.407       .  A
C1663      C1672   1.405       .  A
C1668      C1669   1.401       .  A
C1668      H1673   1.083       .  S
C1669      C1670   1.407       .  A
C1669      H1674   1.083       .  S
C1670      C1671   1.407       .  A
C1671      C1672   1.395       .  A
C1671      H1675   1.083       .  S
C1672      H1676   1.083       .  S
C1677      C1678   1.406       .  A
C1677      C1682   1.401       .  A
C1677      H1687   1.082       .  S
C1678      C1683   1.500       .  S
C1678      C1679   1.412       .  A
C1679      C1680   1.404       .  A
C1679      H1684   1.082       .  S
C1680      C1681   1.404       .  A
C1680      H1685   1.083       .  S
C1681      C1682   1.407       .  A
C1682      H1686   1.083       .  S
C1683      C1688   1.412       .  A
C1683      C1692   1.405       .  A
C1688      C1689   1.406       .  A
C1688      H1693   1.082       .  S
C1689      C1690   1.406       .  A
C1689      H1694   1.083       .  S
C1690      C1691   1.409       .  A
C1691      C1692   1.399       .  A
C1691      H1695   1.083       .  S
C1692      H1696   1.083       .  S
C1697      C1698   1.405       .  A
C1697      C1702   1.400       .  A
C1697      H1707   1.083       .  S
C1698      C1703   1.490       .  S
C1698      C1699   1.407       .  A
C1699      C1700   1.399       .  A
C1699      H1704   1.083       .  S
C1700      C1701   1.406       .  A
C1700      H1705   1.083       .  S
C1701      C1702   1.408       .  A
C1702      H1706   1.083       .  S
C1703      C1708   1.407       .  A
C1703      C1712   1.405       .  A
C1708      C1709   1.401       .  A
C1708      H1713   1.083       .  S
C1709      C1710   1.408       .  A
C1709      H1714   1.083       .  S
C1710      C1711   1.406       .  A
C1711      C1712   1.398       .  A
C1711      H1715   1.083       .  S
C1712      H1716   1.083       .  S
C1717      C1718   1.410       .  A
C1717      C1722   1.402       .  A
C1717      H1727   1.082       .  S
C1718      C1723   1.495       .  S
C1718      C1719   1.408       .  A
C1719      C1720   1.396       .  A
C1719      H1724   1.082       .  S
C1720      C1721   1.403       .  A
C1720      H1725   1.083       .  S
C1721      C1722   1.404       .  A
C1722      H1726   1.083       .  S
C1723      C1728   1.408       .  A
C1723      C1732   1.411       .  A
C1728      C1729   1.398       .  A
C1728      H1733   1.082       .  S
C1729      C1730   1.404       .  A
C1729      H1734   1.084       .  S
C1730      C1731   1.400       .  A
C1731      C1732   1.397       .  A
C1731      H1735   1.083       .  S
C1732      H1736   1.082       .  S
C1737      C1738   1.405       .  A
C1737      C1742   1.403       .  A
C1737      H1747   1.083       .  S
C1738      C1743   1.479   1_455  S
C1738      C1739   1.402       .  A
C1739      C1740   1.391       .  A
C1739      H1744   1.083       .  S
C1740      C1741   1.406       .  A
C1740      H1745   1.083       .  S
C1741      C1742   1.409       .  A
C1742      H1746   1.083       .  S
C1743      C1748   1.405       .  A
C1743      C1752   1.401       .  A
C1748      C1749   1.403       .  A
C1748      H1753   1.083       .  S
C1749      C1750   1.407       .  A
C1749      H1754   1.083       .  S
C1750      C1751   1.408       .  A
C1751      C1752   1.391       .  A
C1751      H1755   1.083       .  S
C1752      H1756   1.084       .  S
C1757      C1758   1.407       .  A
C1757      C1762   1.405       .  A
C1757      H1767   1.083       .  S
C1758      C1763   1.490       .  S
C1758      C1759   1.404       .  A
C1759      C1760   1.399       .  A
C1759      H1764   1.083       .  S
C1760      C1761   1.409       .  A
C1760      H1765   1.083       .  S
C1761      C1762   1.408       .  A
C1762      H1766   1.083       .  S
C1763      C1768   1.406       .  A
C1763      C1772   1.406       .  A
C1768      C1769   1.404       .  A
C1768      H1773   1.083       .  S
C1769      C1770   1.408       .  A
C1769      H1774   1.083       .  S
C1770      C1771   1.407       .  A
C1771      C1772   1.400       .  A
C1771      H1775   1.083       .  S
C1772      H1776   1.083       .  S
C1777      C1778   1.405       .  A
C1777      C1782   1.393       .  A
C1777      H1787   1.082       .  S
C1778      C1783   1.493       .  S
C1778      C1779   1.413       .  A
C1779      C1780   1.405       .  A
C1779      H1784   1.082       .  S
C1780      C1781   1.402       .  A
C1780      H1785   1.083       .  S
C1781      C1782   1.402       .  A
C1782      H1786   1.084       .  S
C1783      C1788   1.410       .  A
C1783      C1792   1.404       .  A
C1788      C1789   1.400       .  A
C1788      H1793   1.082       .  S
C1789      C1790   1.405       .  A
C1789      H1794   1.083       .  S
C1790      C1791   1.409       .  A
C1791      C1792   1.397       .  A
C1791      H1795   1.083       .  S
C1792      H1796   1.082       .  S
C1797      C1798   1.403       .  A
C1797      C1802   1.395       .  A
C1797      H1807   1.083       .  S
C1798      C1803   1.494       .  S
C1798      C1799   1.412       .  A
C1799      C1800   1.404       .  A
C1799      H1804   1.082       .  S
C1800      C1801   1.404       .  A
C1800      H1805   1.083       .  S
C1801      C1802   1.411       .  A
C1802      H1806   1.083       .  S
C1803      C1808   1.412       .  A
C1803      C1812   1.402       .  A
C1808      C1809   1.406       .  A
C1808      H1813   1.082       .  S
C1809      C1810   1.404       .  A
C1809      H1814   1.083       .  S
C1810      C1811   1.412       .  A
C1811      C1812   1.393       .  A
C1811      H1815   1.083       .  S
C1812      H1816   1.083       .  S
C1817      C1818   1.406       .  A
C1817      C1822   1.401       .  A
C1817      H1827   1.083       .  S
C1818      C1823   1.492       .  S
C1818      C1819   1.407       .  A
C1819      C1820   1.403       .  A
C1819      H1824   1.083       .  S
C1820      C1821   1.407       .  A
C1820      H1825   1.083       .  S
C1821      C1822   1.408       .  A
C1822      H1826   1.083       .  S
C1823      C1828   1.406       .  A
C1823      C1832   1.406       .  A
C1828      C1829   1.402       .  A
C1828      H1833   1.083       .  S
C1829      C1830   1.408       .  A
C1829      H1834   1.083       .  S
C1830      C1831   1.408       .  A
C1831      C1832   1.402       .  A
C1831      H1835   1.083       .  S
C1832      H1836   1.083       .  S
C1837      C1838   1.411       .  A
C1837      C1842   1.400       .  A
C1837      H1847   1.082       .  S
C1838      C1843   1.489       .  S
C1838      C1839   1.403       .  A
C1839      C1840   1.392       .  A
C1839      H1844   1.082       .  S
C1840      C1841   1.407       .  A
C1840      H1845   1.083       .  S
C1841      C1842   1.402       .  A
C1842      H1846   1.083       .  S
C1843      C1848   1.404       .  A
C1843      C1852   1.411       .  A
C1848      C1849   1.392       .  A
C1848      H1853   1.082       .  S
C1849      C1850   1.405       .  A
C1849      H1854   1.084       .  S
C1850      C1851   1.401       .  A
C1851      C1852   1.401       .  A
C1851      H1855   1.083       .  S
C1852      H1856   1.082       .  S
C1857      C1858   1.403       .  A
C1857      C1862   1.389       .  A
C1857      H1867   1.082       .  S
C1858      C1863   1.492       .  S
C1858      C1859   1.412       .  A
C1859      C1860   1.407       .  A
C1859      H1864   1.082       .  S
C1860      C1861   1.404       .  A
C1860      H1865   1.083       .  S
C1861      C1862   1.407       .  A
C1862      H1866   1.084       .  S
C1863      C1868   1.409       .  A
C1863      C1872   1.407       .  A
C1868      C1869   1.396       .  A
C1868      H1873   1.082       .  S
C1869      C1870   1.402       .  A
C1869      H1874   1.083       .  S
C1870      C1871   1.406       .  A
C1871      C1872   1.400       .  A
C1871      H1875   1.083       .  S
C1872      H1876   1.082       .  S
C1877      C1878   1.405       .  A
C1877      C1882   1.394       .  A
C1877      H1887   1.082       .  S
C1878      C1883   1.494   1_565  S
C1878      C1879   1.414       .  A
C1879      C1880   1.403       .  A
C1879      H1884   1.082       .  S
C1880      C1881   1.400       .  A
C1880      H1885   1.083       .  S
C1881      C1882   1.403       .  A
C1882      H1886   1.084       .  S
C1883      C1888   1.413       .  A
C1883      C1892   1.406       .  A
C1888      C1889   1.399       .  A
C1888      H1893   1.082       .  S
C1889      C1890   1.399       .  A
C1889      H1894   1.083       .  S
C1890      C1891   1.402       .  A
C1891      C1892   1.397       .  A
C1891      H1895   1.084       .  S
C1892      H1896   1.082       .  S
C1897      C1898   1.411   1_455  A
C1897      C1902   1.406       .  A
C1897      H1907   1.082   1_455  S
C1898      C1903   1.494       .  S
C1898      C1899   1.404   1_655  A
C1899      C1900   1.392       .  A
C1899      H1904   1.082   1_455  S
C1900      C1901   1.407       .  A
C1900      H1905   1.083       .  S
C1901      C1902   1.406       .  A
C1902      H1906   1.083       .  S
C1903      C1908   1.406       .  A
C1903      C1912   1.409       .  A
C1908      C1909   1.401       .  A
C1908      H1913   1.082       .  S
C1909      C1910   1.410       .  A
C1909      H1914   1.083       .  S
C1910      C1911   1.403       .  A
C1911      C1912   1.397       .  A
C1911      H1915   1.083       .  S
C1912      H1916   1.082       .  S
C1917      C1918   1.409       .  A
C1917      C1922   1.400       .  A
C1917      H1927   1.082       .  S
C1918      C1923   1.496       .  S
C1918      C1919   1.408       .  A
C1919      C1920   1.399       .  A
C1919      H1924   1.082       .  S
C1920      C1921   1.405       .  A
C1920      H1925   1.083       .  S
C1921      C1922   1.405       .  A
C1922      H1926   1.083       .  S
C1923      C1928   1.410       .  A
C1923      C1932   1.408       .  A
C1928      C1929   1.400       .  A
C1928      H1933   1.082       .  S
C1929      C1930   1.404       .  A
C1929      H1934   1.083       .  S
C1930      C1931   1.406       .  A
C1931      C1932   1.400       .  A
C1931      H1935   1.083       .  S
C1932      H1936   1.082       .  S
C1937      C1938   1.410       .  A
C1937      C1942   1.405       .  A
C1937      H1947   1.082       .  S
C1938      C1943   1.497       .  S
C1938      C1939   1.407       .  A
C1939      C1940   1.398       .  A
C1939      H1944   1.082       .  S
C1940      C1941   1.406       .  A
C1940      H1945   1.083       .  S
C1941      C1942   1.407       .  A
C1942      H1946   1.083       .  S
C1943      C1948   1.407       .  A
C1943      C1952   1.408       .  A
C1948      C1949   1.399       .  A
C1948      H1953   1.083       .  S
C1949      C1950   1.407       .  A
C1949      H1954   1.083       .  S
C1950      C1951   1.408       .  A
C1951      C1952   1.404       .  A
C1951      H1955   1.083       .  S
C1952      H1956   1.082       .  S
C1957      C1958   1.410       .  A
C1957      C1962   1.400       .  A
C1957      H1967   1.082       .  S
C1958      C1963   1.491       .  S
C1958      C1959   1.405       .  A
C1959      C1960   1.397       .  A
C1959      H1964   1.083       .  S
C1960      C1961   1.407       .  A
C1960      H1965   1.083       .  S
C1961      C1962   1.403       .  A
C1962      H1966   1.083       .  S
C1963      C1968   1.404       .  A
C1963      C1972   1.412       .  A
C1968      C1969   1.393       .  A
C1968      H1973   1.082       .  S
C1969      C1970   1.405       .  A
C1969      H1974   1.083       .  S
C1970      C1971   1.403       .  A
C1971      C1972   1.402       .  A
C1971      H1975   1.083       .  S
C1972      H1976   1.082       .  S
C1977      C1978   1.407       .  A
C1977      C1982   1.401       .  A
C1977      H1987   1.082       .  S
C1978      C1983   1.487       .  S
C1978      C1979   1.407       .  A
C1979      C1980   1.392       .  A
C1979      H1984   1.082       .  S
C1980      C1981   1.401       .  A
C1980      H1985   1.083       .  S
C1981      C1982   1.405       .  A
C1982      H1986   1.083       .  S
C1983      C1988   1.411       .  A
C1983      C1992   1.403       .  A
C1988      C1989   1.405       .  A
C1988      H1993   1.083       .  S
C1989      C1990   1.405       .  A
C1989      H1994   1.083       .  S
C1990      C1991   1.403       .  A
C1991      C1992   1.387       .  A
C1991      H1995   1.084       .  S
C1992      H1996   1.082       .  S
C1997      C1998   1.413       .  A
C1997      C2002   1.405       .  A
C1997      H2007   1.083       .  S
C1998      C2003   1.489   1_565  S
C1998      C1999   1.399       .  A
C1999      C2000   1.391       .  A
C1999      H2004   1.083       .  S
C2000      C2001   1.412       .  A
C2000      H2005   1.083       .  S
C2001      C2002   1.404       .  A
C2002      H2006   1.083       .  S
C2003      C2008   1.402       .  A
C2003      C2012   1.411       .  A
C2008      C2009   1.395       .  A
C2008      H2013   1.083       .  S
C2009      C2010   1.407       .  A
C2009      H2014   1.083       .  S
C2010      C2011   1.404       .  A
C2011      C2012   1.404       .  A
C2011      H2015   1.083       .  S
C2012      H2016   1.083       .  S
