geometry optimzed in LAMMPS
_audit_creation_date              2020-12-01 
_audit_creation_method            'lammps2cif' 
_symmetry_space_group_name_H-M    'P1' 
_symmetry_Int_Tables_number       1 
_symmetry_cell_setting            triclinic 
loop_ 
_symmetry_equiv_pos_as_xyz 
  x,y,z 
_cell_length_a                    43.92245501 
_cell_length_b                    39.315342347528826 
_cell_length_c                    94.91936548895403 
_cell_angle_alpha                 89.56977683578907 
_cell_angle_beta                  90.08899306076552 
_cell_angle_gamma                 90.16532985307452 
loop_ 
_atom_site_label 
_atom_site_type_symbol 
_atom_site_fract_x 
_atom_site_fract_y 
_atom_site_fract_z 
_atom_site_charge 
Fe1        Fe  0.97098172  0.21993257  0.44373953     1.65800
Fe2        Fe  0.94313364  0.13895701  0.44685612     1.73200
Fe3        Fe  0.93850309  0.19301661  0.47456449     1.54400
O4          O  0.97529677  0.22395570  0.47904413    -0.81300
O5          O  0.89811684  0.13764672  0.45296340    -0.79600
O6          O  0.00215181  0.23109178  0.45942294    -0.83800
O7          O  0.94158516  0.25713972  0.45093229    -0.78600
O8          O  0.96265868  0.15171004  0.48225657    -0.80400
O9          O  0.92850109  0.15840949  0.42782181    -0.83200
C10         C  0.91983086  0.25876786  0.45975423     0.97600
C11         C  0.99877377  0.23450821  0.47259364     1.05000
O12         O  0.95086576  0.18399070  0.45501630    -1.12100
O13         O  0.98755165  0.13448970  0.43999843    -0.74600
O14         O  0.00332378  0.18740785  0.43556920    -0.78100
O15         O  0.91327029  0.23473943  0.46827368    -0.78700
C16         C  0.00758227  0.15546680  0.43575005     0.96500
O17         O  0.94211042  0.21301661  0.42660565    -0.76700
O18         O  0.95580811  0.11386398  0.46509687    -0.81900
C19         C  0.88689088  0.14373410  0.46494986     0.99100
C20         C  0.96381854  0.12153290  0.47755693     1.05100
O21         O  0.89992765  0.16296904  0.47377749    -0.77500
C22         C  0.92820476  0.18721634  0.42175432     1.03400
Fe23       Fe  0.78386800  0.23042585  0.30396804     1.65800
Fe24       Fe  0.80815215  0.14950208  0.30032456     1.73200
Fe25       Fe  0.81626662  0.20512382  0.27328511     1.54400
O26         O  0.77523577  0.22643723  0.26770080    -0.81300
O27         O  0.84777152  0.13902395  0.28925498    -0.79600
O28         O  0.76052547  0.25311733  0.28714153    -0.83800
O29         O  0.81966705  0.26321595  0.30089310    -0.78600
O30         O  0.80000815  0.15856376  0.26577169    -0.80400
O31         O  0.83387539  0.16882057  0.31647252    -0.83200
C32         C  0.83496846  0.27032328  0.28990820     0.97600
C33         C  0.75849908  0.24768292  0.27396266     1.05000
O34         O  0.80277149  0.19519068  0.29243682    -1.12100
O35         O  0.76841054  0.15090920  0.31229234    -0.74600
O36         O  0.74612678  0.20027741  0.30745025    -0.78100
O37         O  0.83420260  0.25234077  0.27880470    -0.78700
C38         C  0.74494964  0.16969720  0.31175914     0.96500
O39         O  0.80558534  0.21348131  0.32248856    -0.76700
O40         O  0.78345130  0.12835234  0.28432723    -0.81900
C41         C  0.86519548  0.15543572  0.28098044     0.99100
C42         C  0.78657380  0.13271457  0.27112579     1.05100
O43         O  0.85887710  0.18504113  0.27661618    -0.77500
C44         C  0.82731773  0.19267313  0.32484904     1.03400
Fe45       Fe  0.53583173  0.77949472  0.05446007     1.65800
Fe46       Fe  0.54931500  0.86470303  0.05399490     1.73200
Fe47       Fe  0.56898235  0.81631612  0.02602682     1.54400
O48         O  0.58836047  0.76911621  0.02989620    -0.81300
O49         O  0.52766589  0.88675740  0.03707312    -0.79600
O50         O  0.57546599  0.75347131  0.05168029    -0.83800
O51         O  0.51772908  0.75871349  0.03597428    -0.78600
O52         O  0.60894397  0.83877909  0.03244740    -0.80400
O53         O  0.50631713  0.85543285  0.06281136    -0.83200
C54         C  0.51551825  0.76829753  0.02314117     0.97600
C55         C  0.59012859  0.74900881  0.04037743     1.05000
O56         O  0.55135513  0.82018711  0.04484632    -1.12100
O57         O  0.57140520  0.84676820  0.07179711    -0.74600
O58         O  0.55192508  0.79460335  0.07421994    -0.78100
O59         O  0.53022700  0.79354460  0.01822826    -0.78700
C60         C  0.56707439  0.81974233  0.07895087     0.96500
O61         O  0.49463415  0.80156769  0.05791272    -0.76700
O62         O  0.59105249  0.88083498  0.04571941    -0.81900
C63         C  0.53562986  0.88624056  0.02423675     0.99100
C64         C  0.61169417  0.86778182  0.03805365     1.05100
O65         O  0.55234419  0.86302143  0.01919184    -0.77500
C66         C  0.48736805  0.83086650  0.06212037     1.03400
Fe67       Fe  0.72642857  0.79842925  0.19685930     1.65800
Fe68       Fe  0.69709088  0.87786974  0.20026777     1.73200
Fe69       Fe  0.69691001  0.82259892  0.22846131     1.54400
O70         O  0.67880367  0.77552734  0.22328804    -0.81300
O71         O  0.71750887  0.90298653  0.21665584    -0.79600
O72         O  0.69275424  0.76303126  0.20119939    -0.83800
O73         O  0.75282686  0.77838452  0.21281630    -0.78600
O74         O  0.65371063  0.84279754  0.22713655    -0.80400
O75         O  0.73856882  0.88109188  0.18967891    -0.83200
C76         C  0.75600357  0.78186563  0.22596724     0.97600
C77         C  0.67835145  0.75631928  0.21254245     1.05000
O78         O  0.70655726  0.83293393  0.20859392    -1.12100
O79         O  0.67509778  0.85742433  0.18286085    -0.74600
O80         O  0.70391233  0.81236534  0.17848218    -0.78100
O81         O  0.73867848  0.80070354  0.23315595    -0.78700
C82         C  0.68372567  0.83366803  0.17481909     0.96500
O83         O  0.76179588  0.83108946  0.19233450    -0.76700
O84         O  0.65543370  0.88259810  0.21031067    -0.81900
C85         C  0.72086264  0.89709566  0.22973924     0.99100
C86         C  0.64229057  0.86795270  0.22062157     1.05100
O87         O  0.71395778  0.86880906  0.23552121    -0.77500
C88         C  0.76217407  0.86248694  0.18909862     1.03400
Fe89       Fe  0.27152497  0.20618577  0.80678616     1.65800
Fe90       Fe  0.29704664  0.12577631  0.80240908     1.73200
Fe91       Fe  0.30124156  0.18192013  0.77534812     1.54400
O92         O  0.25891965  0.20101245  0.77075241    -0.81300
O93         O  0.33664592  0.11735754  0.79084223    -0.79600
O94         O  0.24615315  0.22822327  0.79036283    -0.83800
O95         O  0.30645700  0.23985500  0.80293682    -0.78600
O96         O  0.28624279  0.13529322  0.76793979    -0.80400
O97         O  0.32285354  0.14514322  0.81863819    -0.83200
C98         C  0.31933824  0.24783014  0.79138605     0.97600
C99         C  0.24258003  0.22210706  0.77729372     1.05000
O100        O  0.29005556  0.17145567  0.79481356    -1.12100
O101        O  0.25760737  0.12549115  0.81460630    -0.74600
O102        O  0.23463222  0.17513050  0.81099592    -0.78100
O103        O  0.31745844  0.22982660  0.78035656    -0.78700
C104        C  0.23400951  0.14411232  0.81478265     0.96500
O105        O  0.29503539  0.18985150  0.82503013    -0.76700
O106        O  0.27209251  0.10405250  0.78656941    -0.81900
C107        C  0.35271108  0.13439771  0.78215795     0.99100
C108        C  0.27393959  0.10899885  0.77335813     1.05100
O109        O  0.34482269  0.16356635  0.77776600    -0.77500
C110        C  0.31654548  0.16864366  0.82725192     1.03400
Fe111      Fe  0.46760641  0.21434996  0.94434341     1.65800
Fe112      Fe  0.44229610  0.13484417  0.95206286     1.73200
Fe113      Fe  0.44577856  0.19438721  0.97795695     1.54400
O114        O  0.48848781  0.21561413  0.97988009    -0.81300
O115        O  0.40459088  0.12935240  0.96508825    -0.79600
O116        O  0.49787088  0.23676358  0.95849760    -0.83800
O117        O  0.43492383  0.24932902  0.94942109    -0.78600
O118        O  0.46337598  0.14879660  0.98574184    -0.80400
O119        O  0.41395694  0.15210609  0.93620837    -0.83200
C120        C  0.42437363  0.25864655  0.96123567     0.97600
C121        C  0.50393408  0.23420301  0.97156978     1.05000
O122        O  0.45181805  0.18131137  0.95817945    -1.12100
O123        O  0.47948124  0.13187082  0.93853358    -0.74600
O124        O  0.50232070  0.18243440  0.93857112    -0.78100
O125        O  0.42775511  0.24149746  0.97254328    -0.78700
C126        C  0.50232925  0.15083906  0.93602299     0.96500
O127        O  0.43921297  0.19726564  0.92796801    -0.76700
O128        O  0.46937657  0.11402378  0.96745445    -0.81900
C129        C  0.39153157  0.14691227  0.97448596     0.99100
C130        C  0.47248727  0.12100759  0.98041773     1.05100
O131        O  0.40212452  0.17505796  0.97870148    -0.77500
C132        C  0.41808855  0.17507097  0.92694053     1.03400
Fe133      Fe  0.21196976  0.77708884  0.69735740     1.65800
Fe134      Fe  0.19014499  0.85918406  0.69997846     1.73200
Fe135      Fe  0.18289297  0.80640540  0.72826176     1.54400
O136        O  0.16235611  0.76019528  0.72359683    -0.81300
O137        O  0.21478207  0.88194296  0.71568806    -0.79600
O138        O  0.17507973  0.74680026  0.70147488    -0.83800
O139        O  0.23567348  0.75465852  0.71411507    -0.78600
O140        O  0.14114325  0.82920918  0.72595672    -0.80400
O141        O  0.23010156  0.85581234  0.68840786    -0.83200
C142        C  0.23893304  0.76098034  0.72715504     0.97600
C143        C  0.16027349  0.74143315  0.71276857     1.05000
O144        O  0.19491355  0.81416750  0.70862454    -1.12100
O145        O  0.16441917  0.83960516  0.68393923    -0.74600
O146        O  0.19056419  0.79300464  0.67863401    -0.78100
O147        O  0.22324792  0.78315625  0.73339335    -0.78700
C148        C  0.17027573  0.81514727  0.67580680     0.96500
O149        O  0.25032913  0.80501940  0.69289641    -0.76700
O150        O  0.15023051  0.87047828  0.71037686    -0.81900
C151        C  0.21410823  0.87762828  0.72896327     0.99100
C152        C  0.13393192  0.85677578  0.71984343     1.05100
O153        O  0.20188430  0.85189333  0.73488974    -0.77500
C154        C  0.25249535  0.83546482  0.68850636     1.03400
Fe155      Fe  0.02975036  0.79219287  0.55702231     1.65800
Fe156      Fe  0.05308616  0.87425656  0.55211779     1.73200
Fe157      Fe  0.05936535  0.81742787  0.52517416     1.54400
O158        O  0.08058041  0.77218510  0.53079148    -0.81300
O159        O  0.02949466  0.89540806  0.53561090    -0.79600
O160        O  0.06257435  0.75721613  0.55195058    -0.83800
O161        O  0.00160204  0.77343510  0.54145457    -0.78600
O162        O  0.10121105  0.84103412  0.52670514    -0.80400
O163        O  0.01282311  0.87444241  0.56340787    -0.83200
C164        C  0.00035059  0.77510246  0.52811696     0.97600
C165        C  0.07925264  0.75198475  0.54128626     1.05000
O166        O  0.04744611  0.82784121  0.54472711    -1.12100
O167        O  0.07768056  0.85656226  0.56916448    -0.74600
O168        O  0.05633933  0.80629182  0.57421945    -0.78100
O169        O  0.01932179  0.79192191  0.52076899    -0.78700
C170        C  0.07486883  0.83035619  0.57695319     0.96500
O171        O  0.99385674  0.82208575  0.56320629    -0.76700
O172        O  0.09346190  0.88338802  0.54163373    -0.81900
C173        C  0.02846010  0.88880244  0.52254138     0.99100
C174        C  0.10930809  0.86863924  0.53237232     1.05100
O175        O  0.03951350  0.86178493  0.51729847    -0.77500
C176        C  0.99142386  0.85350907  0.56573443     1.03400
Fe177      Fe  0.21544647  0.96678264  0.05564741     1.65800
Fe178      Fe  0.20312096  0.88064224  0.05431395     1.73200
Fe179      Fe  0.18328681  0.93125008  0.02624706     1.54400
O180        O  0.15509246  0.97097556  0.03178728    -0.81300
O181        O  0.21969329  0.85838781  0.03653343    -0.79600
O182        O  0.17942410  0.99598090  0.04956978    -0.83800
O183        O  0.24070245  0.98483635  0.03853618    -0.78600
O184        O  0.14795037  0.89810269  0.02984532    -0.80400
O185        O  0.24797485  0.88776966  0.06074441    -0.83200
C186        C  0.23716490  0.98265843  0.02525969     0.97600
C187        C  0.15849316  0.99517296  0.04039629     1.05000
O188        O  0.20050851  0.92621409  0.04541403    -1.12100
O189        O  0.18639696  0.89741838  0.07319986    -0.74600
O190        O  0.19178859  0.95383861  0.07401124    -0.78100
O191        O  0.21660427  0.96454506  0.01969428    -0.78700
C192        C  0.18300413  0.92565103  0.07933989     0.96500
O193        O  0.25422455  0.94366792  0.06282954    -0.76700
O194        O  0.15905955  0.86625794  0.04863777    -0.81900
C195        C  0.22014842  0.86514859  0.02346438     0.99100
C196        C  0.14185238  0.87398091  0.03832277     1.05100
O197        O  0.20914346  0.89219689  0.01821460    -0.77500
C198        C  0.26411312  0.91360168  0.06373705     1.03400
Fe199      Fe  0.03350379  0.97672989  0.20091163     1.65800
Fe200      Fe  0.06274617  0.89584326  0.20128457     1.73200
Fe201      Fe  0.07331239  0.94790327  0.22964516     1.54400
O202        O  0.09525366  0.99206988  0.22325671    -0.81300
O203        O  0.04925071  0.86928594  0.21909154    -0.79600
O204        O  0.06554803  0.01294878  0.20610540    -0.83800
O205        O  0.00758666  0.98898367  0.21826144    -0.78600
O206        O  0.11286138  0.92108540  0.22657842    -0.80400
O207        O  0.01813720  0.89312347  0.19427733    -0.83200
C208        C  0.01271106  0.98827879  0.23139506     0.97600
C209        C  0.08805516  0.01530873  0.21448639     1.05000
O210        O  0.05660105  0.94013027  0.21060359    -1.12100
O211        O  0.07738607  0.91824127  0.18264777    -0.74600
O212        O  0.05642583  0.96986022  0.18212381    -0.78100
O213        O  0.03630322  0.97490874  0.23664896    -0.78700
C214        C  0.07267235  0.94680579  0.17666825     0.96500
O215        O  0.99832750  0.94508296  0.19487600    -0.76700
O216        O  0.10790754  0.89031878  0.20719010    -0.81900
C217        C  0.04639966  0.87583140  0.23214217     0.99100
C218        C  0.12267002  0.89906736  0.21805851     1.05100
O219        O  0.05288721  0.90450428  0.23746909    -0.77500
C220        C  0.99596773  0.91340707  0.19273145     1.03400
Fe221      Fe  0.97928106  0.55061477  0.31168342     1.65800
Fe222      Fe  0.95141291  0.63132691  0.30868604     1.73200
Fe223      Fe  0.94665453  0.57718029  0.28100869     1.54400
O224        O  0.98119475  0.54275904  0.27656851    -0.81300
O225        O  0.90663108  0.63349530  0.30213038    -0.79600
O226        O  0.00916405  0.53798983  0.29589227    -0.83800
O227        O  0.94782325  0.51452179  0.30490259    -0.78600
O228        O  0.97376108  0.61626136  0.27369278    -0.80400
O229        O  0.93570914  0.61205551  0.32775003    -0.83200
C230        C  0.92534438  0.51368348  0.29634767     0.97600
C231        C  0.00470228  0.53219827  0.28297967     1.05000
O232        O  0.95904326  0.58633830  0.30056119    -1.12100
O233        O  0.99540430  0.63546173  0.31611187    -0.74600
O234        O  0.01306904  0.58279245  0.31906838    -0.78100
O235        O  0.91912589  0.53771873  0.28775236    -0.78700
C236        C  0.01634931  0.61488147  0.31955075     0.96500
O237        O  0.95257265  0.55871449  0.32928074    -0.76700
O238        O  0.96620236  0.65540043  0.29037912    -0.81900
C239        C  0.89663932  0.62940736  0.28975980     0.99100
C240        C  0.97598847  0.64646456  0.27830872     1.05100
O241        O  0.90997967  0.61035236  0.28100717    -0.77500
C242        C  0.93781526  0.58367851  0.33416919     1.03400
Fe243      Fe  0.77497570  0.53789670  0.45089625     1.65800
Fe244      Fe  0.79672879  0.62157275  0.45163112     1.73200
Fe245      Fe  0.81423007  0.56884630  0.47922454     1.54400
O246        O  0.78233775  0.53413847  0.48622820    -0.81300
O247        O  0.84211081  0.63061943  0.45604126    -0.79600
O248        O  0.75096505  0.52193300  0.46861225    -0.83800
O249        O  0.81034703  0.50523394  0.45571811    -0.78600
O250        O  0.78892318  0.60774043  0.48801752    -0.80400
O251        O  0.81039246  0.60308814  0.43239735    -0.83200
C252        C  0.83426562  0.50544354  0.46332190     0.97600
C253        C  0.75886628  0.51954292  0.48144344     1.05000
O254        O  0.79533416  0.57611334  0.46055501    -1.12100
O255        O  0.75114199  0.62018826  0.44608796    -0.74600
O256        O  0.73703497  0.56584062  0.44528842    -0.78100
O257        O  0.84085268  0.52954296  0.47168889    -0.78700
C258        C  0.73120301  0.59731255  0.44412464     0.96500
O259        O  0.79626638  0.54858275  0.43176803    -0.76700
O260        O  0.78401656  0.64465863  0.47008500    -0.81900
C261        C  0.85768952  0.62442278  0.46697398     0.99100
C262        C  0.78121777  0.63662837  0.48303225     1.05100
O263        O  0.84959991  0.60248152  0.47606156    -0.77500
C264        C  0.80889685  0.57458650  0.42624948     1.03400
Fe265      Fe  0.51737632  0.95766593  0.69851600     1.65800
Fe266      Fe  0.55090764  0.87891934  0.69771304     1.73200
Fe267      Fe  0.56079411  0.92985658  0.72637492     1.54400
O268        O  0.58010487  0.97555773  0.71989099    -0.81300
O269        O  0.54004445  0.85053827  0.71541705    -0.79600
O270        O  0.54838622  0.99526364  0.70321894    -0.83800
O271        O  0.49279246  0.96895255  0.71655179    -0.78600
O272        O  0.60137196  0.90550487  0.72241008    -0.80400
O273        O  0.50631873  0.87364234  0.69138243    -0.83200
C274        C  0.49911944  0.96796665  0.72959379     0.97600
C275        C  0.57131068  0.99855551  0.71130148     1.05000
O276        O  0.54303569  0.92216860  0.70754207    -1.12100
O277        O  0.56308918  0.90301324  0.67918583    -0.74600
O278        O  0.53834304  0.95244503  0.67899543    -0.78100
O279        O  0.52328713  0.95462978  0.73428177    -0.78700
C280        C  0.55580382  0.93087827  0.67326585     0.96500
O281        O  0.48333051  0.92383091  0.69314951    -0.76700
O282        O  0.59649116  0.87627223  0.70264225    -0.81900
C283        C  0.53746882  0.85606154  0.72856065     0.99100
C284        C  0.61166078  0.88510797  0.71332738     1.05100
O285        O  0.54285835  0.88479789  0.73412385    -0.77500
C286        C  0.48289225  0.89221738  0.69055841     1.03400
Fe287      Fe  0.72818066  0.96972607  0.55822349     1.65800
Fe288      Fe  0.69603786  0.89122899  0.55486583     1.73200
Fe289      Fe  0.69635495  0.94665057  0.52678284     1.54400
O290        O  0.67948454  0.99410716  0.53188602    -0.81300
O291        O  0.71595228  0.86578975  0.53850249    -0.79600
O292        O  0.69693846  0.00711888  0.55338524    -0.83800
O293        O  0.75600400  0.98721502  0.54228789    -0.78600
O294        O  0.65280626  0.92748419  0.52823245    -0.80400
O295        O  0.73711577  0.88648971  0.56562580    -0.83200
C296        C  0.75711470  0.98502490  0.52901509     0.97600
C297        C  0.68162168  0.01405099  0.54233424     1.05000
O298        O  0.70669873  0.93596087  0.54656747    -1.12100
O299        O  0.67469243  0.91268692  0.57209382    -0.74600
O300        O  0.70373076  0.95802996  0.57629799    -0.78100
O301        O  0.73800414  0.96800990  0.52195330    -0.78700
C302        C  0.68290746  0.93725851  0.57985281     0.96500
O303        O  0.76186889  0.93575110  0.56355711    -0.76700
O304        O  0.65417662  0.88739999  0.54488187    -0.81900
C305        C  0.71934875  0.87188939  0.52543830     0.99100
C306        C  0.64095557  0.90260134  0.53475118     1.05100
O307        O  0.71254303  0.90023120  0.51970121    -0.77500
C308        C  0.76106411  0.90441810  0.56681001     1.03400
Fe309      Fe  0.46551726  0.51709022  0.80171336     1.65800
Fe310      Fe  0.44763826  0.60152226  0.80043370     1.73200
Fe311      Fe  0.43760812  0.55153602  0.77122849     1.54400
O312        O  0.47268026  0.51896917  0.76612347    -0.81300
O313        O  0.40367772  0.61171351  0.79321478    -0.79600
O314        O  0.49595420  0.50433229  0.78607211    -0.83800
O315        O  0.43263908  0.48584940  0.79380016    -0.78600
O316        O  0.46483924  0.59167757  0.76474028    -0.80400
O317        O  0.42901532  0.58150856  0.81892028    -0.83200
C318        C  0.41152008  0.48692584  0.78471073     0.97600
C319        C  0.49435648  0.50483352  0.77274635     1.05000
O320        O  0.45007144  0.55681356  0.79114764    -1.12100
O321        O  0.49196716  0.59805068  0.80820813    -0.74600
O322        O  0.50050204  0.54271140  0.81114298    -0.78100
O323        O  0.40880517  0.51102985  0.77582388    -0.78700
C324        C  0.50873089  0.57338750  0.81210342     0.96500
O325        O  0.43713274  0.52554065  0.81858730    -0.76700
O326        O  0.46551912  0.62664037  0.78319492    -0.81900
C327        C  0.39070813  0.60532244  0.78153202     0.99100
C328        C  0.47156842  0.61987768  0.77042997     1.05100
O329        O  0.40120338  0.58389674  0.77290441    -0.77500
C330        C  0.42599578  0.55184751  0.82422864     1.03400
Fe331      Fe  0.28727485  0.53620838  0.94546014     1.65800
Fe332      Fe  0.30144806  0.62100689  0.94874077     1.73200
Fe333      Fe  0.31648407  0.56740300  0.97613660     1.54400
O334        O  0.27739209  0.54230422  0.98164212    -0.81300
O335        O  0.34248452  0.63497796  0.95831724    -0.79600
O336        O  0.26383639  0.51360495  0.96241774    -0.83800
O337        O  0.32526220  0.50820153  0.94960280    -0.78600
O338        O  0.29688720  0.61160131  0.98370959    -0.80400
O339        O  0.32549955  0.60618971  0.93136939    -0.83200
C340        C  0.34029832  0.50294379  0.96079238     0.97600
C341        C  0.26100162  0.52047117  0.97546666     1.05000
O342        O  0.30186114  0.57480635  0.95675257    -1.12100
O343        O  0.25963433  0.61479474  0.93853411    -0.74600
O344        O  0.24751208  0.55992686  0.94025422    -0.78100
O345        O  0.33815107  0.52181238  0.97154529    -0.78700
C346        C  0.24081022  0.59035174  0.93725796     0.96500
O347        O  0.30872768  0.55365068  0.92700515    -0.76700
O348        O  0.27757876  0.63978468  0.96533651    -0.81900
C349        C  0.36136029  0.62155408  0.96688672     0.99100
C350        C  0.28151185  0.63587659  0.97845935     1.05100
O351        O  0.35681311  0.59269717  0.97260304    -0.77500
C352        C  0.32393666  0.58016635  0.92360960     1.03400
Fe353      Fe  0.72342485  0.47042919  0.05498403     1.65800
Fe354      Fe  0.71003366  0.38604517  0.05205692     1.73200
Fe355      Fe  0.69692458  0.43864793  0.02402867     1.54400
O356        O  0.66555102  0.47550835  0.02962815    -0.81300
O357        O  0.72486195  0.36379802  0.03388041    -0.79600
O358        O  0.69127580  0.50205895  0.04656459    -0.83800
O359        O  0.75438860  0.48554678  0.03991921    -0.78600
O360        O  0.66302770  0.40195757  0.02525552    -0.80400
O361        O  0.75532184  0.39103560  0.05777895    -0.83200
C362        C  0.75145369  0.48913699  0.02669901     0.97600
C363        C  0.66977458  0.50075824  0.03766755     1.05000
O364        O  0.70986691  0.43169055  0.04368493    -1.12100
O365        O  0.69471089  0.40226991  0.07157055    -0.74600
O366        O  0.69335172  0.45890650  0.07101195    -0.78100
O367        O  0.72967759  0.47575978  0.01981738    -0.78700
C368        C  0.68696927  0.43058662  0.07681382     0.96500
O369        O  0.75835522  0.44471000  0.06485598    -0.76700
O370        O  0.66525754  0.37619320  0.04624382    -0.81900
C371        C  0.73189507  0.37275016  0.02143851     0.99100
C372        C  0.65285025  0.38063357  0.03424507     1.05100
O373        O  0.72682246  0.40239298  0.01659632    -0.77500
C374        C  0.76993652  0.41559679  0.06319898     1.03400
Fe375      Fe  0.52971333  0.47409927  0.19117716     1.65800
Fe376      Fe  0.55433337  0.39347161  0.19815488     1.73200
Fe377      Fe  0.56159162  0.45501125  0.22343490     1.54400
O378        O  0.58582397  0.49657574  0.21548976    -0.81300
O379        O  0.53586732  0.37489423  0.21641621    -0.79600
O380        O  0.56378198  0.50894966  0.19474978    -0.83800
O381        O  0.50242498  0.49596692  0.20636007    -0.78600
O382        O  0.60099839  0.42630302  0.22370216    -0.80400
O383        O  0.51125393  0.39020579  0.18936295    -0.83200
C384        C  0.50387004  0.49945167  0.21959863     0.97600
C385        C  0.58314819  0.51483597  0.20437892     1.05000
O386        O  0.54868876  0.44093376  0.20427781    -1.12100
O387        O  0.57369416  0.40708897  0.17922786    -0.74600
O388        O  0.55441503  0.45783786  0.17383226    -0.78100
O389        O  0.52439888  0.48558594  0.22701602    -0.78700
C390        C  0.57081022  0.43226147  0.17094337     0.96500
O391        O  0.49332441  0.44268219  0.18651706    -0.76700
O392        O  0.59771812  0.38857324  0.20643562    -0.81900
C393        C  0.53083975  0.38535425  0.22881329     0.99100
C394        C  0.61133292  0.40109350  0.21698039     1.05100
O395        O  0.53819479  0.41497146  0.23297402    -0.77500
C396        C  0.49003617  0.41063959  0.18611719     1.03400
Fe397      Fe  0.27150949  0.04324711  0.44378998     1.65800
Fe398      Fe  0.30593569  0.12155813  0.44653299     1.73200
Fe399      Fe  0.30667784  0.06602977  0.47439328     1.54400
O400        O  0.26804028  0.03867026  0.47930555    -0.81300
O401        O  0.35078836  0.12083718  0.45354677    -0.79600
O402        O  0.24119561  0.03168520  0.45974244    -0.83800
O403        O  0.30015416  0.00400675  0.44994012    -0.78600
O404        O  0.28611605  0.10943647  0.48196748    -0.80400
O405        O  0.32076760  0.10074203  0.42770146    -0.83200
C406        C  0.32147560  0.00037814  0.45893445     0.97600
C407        C  0.24457107  0.02826446  0.47290330     1.05000
O408        O  0.29476846  0.07695179  0.45485475    -1.12100
O409        O  0.26225279  0.12935129  0.43878634    -0.74600
O410        O  0.24019765  0.07848331  0.43683393    -0.78100
O411        O  0.32826343  0.02255232  0.46806473    -0.78700
C412        C  0.23952032  0.11066425  0.43583246     0.96500
O413        O  0.29807265  0.05011431  0.42601683    -0.76700
O414        O  0.29270658  0.14717558  0.46445231    -0.81900
C415        C  0.36221635  0.10973323  0.46496767     0.99100
C416        C  0.28472936  0.13951173  0.47697356     1.05100
O417        O  0.34777571  0.09051193  0.47331963    -0.77500
C418        C  0.31550480  0.07318712  0.42119558     1.03400
Fe419      Fe  0.47479472  0.04862496  0.30116949     1.65800
Fe420      Fe  0.44501252  0.12842223  0.30186828     1.73200
Fe421      Fe  0.43566923  0.07940707  0.27254372     1.54400
O422        O  0.47475729  0.05734268  0.26497175    -0.81300
O423        O  0.40132247  0.13657328  0.29429778    -0.79600
O424        O  0.49740647  0.03261377  0.28324430    -0.83800
O425        O  0.44055564  0.01402713  0.29739438    -0.78600
O426        O  0.45290175  0.12610043  0.26593865    -0.80400
O427        O  0.42668691  0.10387329  0.31918137    -0.83200
C428        C  0.42110630  0.01018881  0.28756781     0.97600
C429        C  0.49518178  0.03840783  0.27013044     1.05000
O430        O  0.45163063  0.08542202  0.29178949    -1.12100
O431        O  0.48840342  0.12880667  0.31074099    -0.74600
O432        O  0.51125491  0.08022953  0.30524148    -0.78100
O433        O  0.41702985  0.03196701  0.27770143    -0.78700
C434        C  0.51205593  0.11041657  0.30986806     0.96500
O435        O  0.45598147  0.05790239  0.32094883    -0.76700
O436        O  0.46216642  0.15654242  0.28535635    -0.81900
C437        C  0.38527565  0.12557062  0.28419296     0.99100
C438        C  0.46215157  0.15295085  0.27205497     1.05100
O439        O  0.39396578  0.10155448  0.27634330    -0.77500
C440        C  0.43628355  0.07809769  0.32596092     1.03400
Fe441      Fe  0.02686179  0.46132721  0.69368522     1.65800
Fe442      Fe  0.04333100  0.37752970  0.69890169     1.73200
Fe443      Fe  0.04948898  0.43338811  0.72615272     1.54400
O444        O  0.08048108  0.47094564  0.72083410    -0.81300
O445        O  0.02271965  0.35699339  0.71647392    -0.79600
O446        O  0.05735224  0.49484495  0.70230487    -0.83800
O447        O  0.99358644  0.47709294  0.70755539    -0.78600
O448        O  0.08462219  0.39870748  0.72741298    -0.80400
O449        O  0.00040102  0.37947252  0.68980936    -0.83200
C450        C  0.99464774  0.48175480  0.72075788     0.97600
C451        C  0.07708008  0.49520296  0.71208309     1.05000
O452        O  0.04008861  0.42401880  0.70621613    -1.12100
O453        O  0.06505307  0.39323164  0.68052067    -0.74600
O454        O  0.05873608  0.44939432  0.67843835    -0.78100
O455        O  0.01551317  0.46931516  0.72846441    -0.78700
C456        C  0.07014571  0.42147734  0.67433016     0.96500
O457        O  0.99386261  0.43356301  0.68357199    -0.76700
O458        O  0.08591092  0.36879305  0.70764238    -0.81900
C459        C  0.01379539  0.36710476  0.72846918     0.99100
C460        C  0.09648313  0.37614506  0.71969391     1.05100
O461        O  0.01930434  0.39668371  0.73312547    -0.77500
C462        C  0.98496292  0.40299079  0.68403169     1.03400
Fe463      Fe  0.21372441  0.46800715  0.55481724     1.65800
Fe464      Fe  0.19584379  0.38380402  0.55207327     1.73200
Fe465      Fe  0.17966503  0.43757266  0.52510702     1.54400
O466        O  0.16010774  0.48417388  0.52995716    -0.81300
O467        O  0.21908208  0.36430155  0.53528763    -0.79600
O468        O  0.17728160  0.49917958  0.55110431    -0.83800
O469        O  0.23685447  0.48824328  0.53727257    -0.78600
O470        O  0.13882845  0.41486911  0.53007753    -0.80400
O471        O  0.23771470  0.38837846  0.56234391    -0.83200
C472        C  0.23733543  0.48144593  0.52413435     0.97600
C473        C  0.16060228  0.50416833  0.54039952     1.05000
O474        O  0.19645720  0.42997905  0.54400797    -1.12100
O475        O  0.17195024  0.40074483  0.56929920    -0.74600
O476        O  0.19215726  0.45204368  0.57353741    -0.78100
O477        O  0.21892869  0.46081147  0.51843659    -0.78700
C478        C  0.17484575  0.42706258  0.57687927     0.96500
O479        O  0.25270034  0.44202381  0.55961274    -0.76700
O480        O  0.15485805  0.37017647  0.54246168    -0.81900
C481        C  0.21328295  0.36780260  0.52225704     0.99100
C482        C  0.13501175  0.38504880  0.53485780     1.05100
O483        O  0.19694358  0.39191062  0.51741225    -0.77500
C484        C  0.25795613  0.41148260  0.56299561     1.03400
Fe485      Fe  0.96452351  0.02738268  0.80221423     1.65800
Fe486      Fe  0.93701248  0.10875525  0.80267135     1.73200
Fe487      Fe  0.93195310  0.06179559  0.77279914     1.54400
O488        O  0.96782176  0.03129897  0.76692446    -0.81300
O489        O  0.89189269  0.11209599  0.79661984    -0.79600
O490        O  0.99451372  0.01831645  0.78608024    -0.83800
O491        O  0.93383966  0.99273875  0.79377970    -0.78600
O492        O  0.95717547  0.10376900  0.76706873    -0.80400
O493        O  0.92262083  0.08492116  0.82107182    -0.83200
C494        C  0.91217309  0.99343123  0.78482283     0.97600
C495        C  0.99043743  0.01748492  0.77288542     1.05000
O496        O  0.94444845  0.06590071  0.79261726    -1.12100
O497        O  0.98143416  0.11112059  0.80958931    -0.74600
O498        O  0.99818378  0.05772547  0.81120154    -0.78100
O499        O  0.90599209  0.01934968  0.77727078    -0.78700
C500        C  0.00201178  0.08963631  0.81252479     0.96500
O501        O  0.93680992  0.03072819  0.81970491    -0.76700
O502        O  0.94998890  0.13803151  0.78545177    -0.81900
C503        C  0.88065786  0.10879561  0.78440638     0.99100
C504        C  0.95851470  0.13274189  0.77284591     1.05100
O505        O  0.89390813  0.09203559  0.77485449    -0.77500
C506        C  0.92315005  0.05469846  0.82590163     1.03400
Fe507      Fe  0.77065376  0.03732636  0.94494875     1.65800
Fe508      Fe  0.79643956  0.11876965  0.94883927     1.73200
Fe509      Fe  0.80306826  0.06266272  0.97611177     1.54400
O510        O  0.76636978  0.03149309  0.98051943    -0.81300
O511        O  0.84173595  0.12083088  0.95472497    -0.79600
O512        O  0.74038777  0.02321569  0.96070888    -0.83800
O513        O  0.80122608  0.00035414  0.95156495    -0.78600
O514        O  0.77899333  0.10331742  0.98434969    -0.80400
O515        O  0.80990115  0.10210694  0.92946077    -0.83200
C516        C  0.82249531  0.99798889  0.96065255     0.97600
C517        C  0.74344788  0.02000899  0.97394556     1.05000
O518        O  0.79012216  0.07280826  0.95660119    -1.12100
O519        O  0.75174384  0.12251828  0.94238325    -0.74600
O520        O  0.73698410  0.06968940  0.93734053    -0.78100
O521        O  0.82832732  0.02117202  0.96956574    -0.78700
C522        C  0.73212085  0.10152403  0.93787433     0.96500
O523        O  0.79860872  0.04708772  0.92753456    -0.76700
O524        O  0.78407861  0.14182723  0.96717311    -0.81900
C525        C  0.85364012  0.11386975  0.96657334     0.99100
C526        C  0.77683902  0.13359099  0.97965881     1.05100
O527        O  0.84150140  0.09321046  0.97525474    -0.77500
C528        C  0.81053975  0.07440560  0.92279440     1.03400
Fe529      Fe  0.96590027  0.72244161  0.94326810     1.65800
Fe530      Fe  0.95893140  0.63612942  0.94712675     1.73200
Fe531      Fe  0.94045305  0.68844944  0.97457717     1.54400
O532        O  0.97665039  0.71964408  0.97981047    -0.81300
O533        O  0.91643188  0.62100101  0.95449608    -0.79600
O534        O  0.99067735  0.74439544  0.95955541    -0.83800
O535        O  0.92810569  0.74971092  0.94866036    -0.78600
O536        O  0.96444590  0.64726109  0.98279873    -0.80400
O537        O  0.93880731  0.64925105  0.92838306    -0.83200
C538        C  0.91166060  0.75164462  0.95955887     0.97600
C539        C  0.99290146  0.74060696  0.97285068     1.05000
O540        O  0.95496343  0.68234465  0.95500443    -1.12100
O541        O  0.00242384  0.64530334  0.93937885    -0.74600
O542        O  0.00601585  0.70143292  0.93658104    -0.78100
O543        O  0.91356595  0.73057695  0.96972940    -0.78700
C544        C  0.01731305  0.67193092  0.93605781     0.96500
O545        O  0.94208659  0.70538621  0.92552659    -0.76700
O546        O  0.97904785  0.61588346  0.96466090    -0.81900
C547        C  0.89820472  0.63118442  0.96397199     0.99100
C548        C  0.97730673  0.62120105  0.97774821     1.05100
O549        O  0.90320869  0.65740897  0.97141238    -0.77500
C550        C  0.93365170  0.67611231  0.92138109     1.03400
Fe551      Fe  0.77356870  0.71460815  0.80192998     1.65800
Fe552      Fe  0.79521857  0.63162832  0.80262622     1.73200
Fe553      Fe  0.80118443  0.67849084  0.77241277     1.54400
O554        O  0.76685833  0.71268715  0.76711825    -0.81300
O555        O  0.84013282  0.62590014  0.79631179    -0.79600
O556        O  0.74084355  0.72223791  0.78672829    -0.83800
O557        O  0.80313867  0.74764091  0.79182434    -0.78600
O558        O  0.77279192  0.63842828  0.76731144    -0.80400
O559        O  0.81095881  0.65506061  0.82107296    -0.83200
C560        C  0.82508665  0.74542442  0.78315836     0.97600
C561        C  0.74431236  0.72538073  0.77355065     1.05000
O562        O  0.79017029  0.67485297  0.79238105    -1.12100
O563        O  0.75034522  0.63224437  0.80943313    -0.74600
O564        O  0.74157916  0.68721166  0.81316395    -0.78100
O565        O  0.83055122  0.71855936  0.77626323    -0.78700
C566        C  0.73356423  0.65626283  0.81376164     0.96500
O567        O  0.80453177  0.71092147  0.81808423    -0.76700
O568        O  0.78069496  0.60299228  0.78548630    -0.81900
C569        C  0.85056225  0.62817473  0.78386232     0.99100
C570        C  0.77119456  0.60909806  0.77302174     1.05100
O571        O  0.83719166  0.64515206  0.77426561    -0.77500
C572        C  0.81481721  0.68575565  0.82499551     1.03400
Fe573      Fe  0.03627892  0.28226963  0.05499024     1.65800
Fe574      Fe  0.05537365  0.36517725  0.04871157     1.73200
Fe575      Fe  0.05535041  0.30813282  0.02172424     1.54400
O576        O  0.07560886  0.26167564  0.02598273    -0.81300
O577        O  0.02977970  0.38675162  0.03304382    -0.79600
O578        O  0.07074959  0.25095828  0.04899919    -0.83800
O579        O  0.00709181  0.25979159  0.04054800    -0.78600
O580        O  0.09800301  0.32974957  0.02166024    -0.80400
O581        O  0.01557406  0.36410396  0.06075561    -0.83200
C582        C  0.99970929  0.26400698  0.02770969     0.97600
C583        C  0.08075053  0.24370954  0.03688139     1.05000
O584        O  0.04902952  0.31858590  0.04178994    -1.12100
O585        O  0.08249510  0.34921145  0.06531500    -0.74600
O586        O  0.06344814  0.29881768  0.07153265    -0.78100
O587        O  0.01333999  0.28492492  0.01962670    -0.78700
C588        C  0.08105506  0.32393587  0.07365901     0.96500
O589        O  0.00036982  0.30991455  0.06201239    -0.76700
O590        O  0.09464456  0.37297698  0.03672502    -0.81900
C591        C  0.02745549  0.38097695  0.01998481     0.99100
C592        C  0.10819231  0.35704589  0.02691832     1.05100
O593        O  0.03644752  0.35347438  0.01443837    -0.77500
C594        C  0.99603943  0.34129633  0.06392808     1.03400
Fe595      Fe  0.21994670  0.30315548  0.19449058     1.65800
Fe596      Fe  0.19223275  0.38366520  0.19836575     1.73200
Fe597      Fe  0.18939509  0.32771010  0.22585519     1.54400
O598        O  0.16238181  0.28759819  0.21943707    -0.81300
O599        O  0.20778958  0.40696547  0.21646736    -0.79600
O600        O  0.18932921  0.26642229  0.20145396    -0.83800
O601        O  0.25090431  0.28898687  0.20982530    -0.78600
O602        O  0.15171628  0.35948504  0.22621837    -0.80400
O603        O  0.23585094  0.38850608  0.19049724    -0.83200
C604        C  0.24742802  0.28274683  0.22282377     0.97600
C605        C  0.16798047  0.26437371  0.21053017     1.05000
O606        O  0.20048390  0.33812088  0.20617468    -1.12100
O607        O  0.17526612  0.36544242  0.17954106    -0.74600
O608        O  0.19164761  0.31217470  0.17733894    -0.78100
O609        O  0.22492004  0.29399512  0.22969770    -0.78700
C610        C  0.17638163  0.33753218  0.17295580     0.96500
O611        O  0.25305077  0.33606316  0.18679278    -0.76700
O612        O  0.14786069  0.38527417  0.20546131    -0.81900
C613        C  0.21783163  0.39782697  0.22850645     0.99100
C614        C  0.13787835  0.37913820  0.21771392     1.05100
O615        O  0.21597656  0.36740011  0.23312972    -0.77500
C616        C  0.25647886  0.36817714  0.18657414     1.03400
Fe617      Fe  0.28819365  0.72147727  0.30965262     1.65800
Fe618      Fe  0.31139845  0.63988598  0.30376289     1.73200
Fe619      Fe  0.31647475  0.69875495  0.27738990     1.54400
O620        O  0.28042201  0.73173955  0.27418692    -0.81300
O621        O  0.35603997  0.63787908  0.29709710    -0.79600
O622        O  0.25751316  0.73937156  0.29477522    -0.83800
O623        O  0.31979976  0.75790210  0.30334811    -0.78600
O624        O  0.29014846  0.65979640  0.26909577    -0.80400
O625        O  0.32687335  0.65380690  0.32332563    -0.83200
C626        C  0.33968966  0.76090526  0.29364564     0.97600
C627        C  0.25925817  0.74422545  0.28157864     1.05000
O628        O  0.30543193  0.68686028  0.29698036    -1.12100
O629        O  0.26730291  0.63647902  0.31092771    -0.74600
O630        O  0.25393715  0.68918702  0.31687472    -0.78100
O631        O  0.34349863  0.73882555  0.28406532    -0.78700
C632        C  0.24840710  0.65748337  0.31592881     0.96500
O633        O  0.31654525  0.70856064  0.32653872    -0.76700
O634        O  0.29667263  0.61891572  0.28518679    -0.81900
C635        C  0.36723845  0.64623525  0.28526747     0.99100
C636        C  0.28763011  0.62905102  0.27317358     1.05100
O637        O  0.35434903  0.66736517  0.27702811    -0.77500
C638        C  0.32808991  0.68054721  0.33063538     1.03400
Fe639      Fe  0.46877294  0.72663771  0.45427892     1.65800
Fe640      Fe  0.44496731  0.64469268  0.45444304     1.73200
Fe641      Fe  0.43180374  0.69496228  0.48273240     1.54400
O642        O  0.47214263  0.71409465  0.49039305    -0.81300
O643        O  0.40234634  0.63302929  0.46318525    -0.79600
O644        O  0.48801923  0.74658319  0.47257070    -0.83800
O645        O  0.43142048  0.75676312  0.45651023    -0.78600
O646        O  0.44570902  0.64707582  0.48961173    -0.80400
O647        O  0.42400076  0.66655847  0.43702222    -0.83200
C648        C  0.41486724  0.76219529  0.46718618     0.97600
C649        C  0.48908217  0.73733984  0.48542776     1.05000
O650        O  0.44849128  0.68869744  0.46386616    -1.12100
O651        O  0.48822200  0.64847872  0.44513956    -0.74600
O652        O  0.50746908  0.69864780  0.45148670    -0.78100
O653        O  0.41525850  0.74335881  0.47813603    -0.78700
C654        C  0.51056565  0.66899687  0.44656830     0.96500
O655        O  0.45234713  0.71328100  0.43449317    -0.76700
O656        O  0.46508745  0.62002748  0.47106080    -0.81900
C657        C  0.38393085  0.64799751  0.47142629     0.99100
C658        C  0.45944323  0.62197624  0.48414684     1.05100
O659        O  0.38998324  0.67634119  0.47699595    -0.77500
C660        C  0.43276379  0.69225388  0.42986978     1.03400
Fe661      Fe  0.70755175  0.27619135  0.69183559     1.65800
Fe662      Fe  0.70077912  0.36153135  0.69762598     1.73200
Fe663      Fe  0.68366983  0.30476491  0.72385182     1.54400
O664        O  0.65950942  0.26114013  0.71877116    -0.81300
O665        O  0.72447283  0.37776629  0.71491811    -0.79600
O666        O  0.66873062  0.24946334  0.69631875    -0.83800
O667        O  0.73141090  0.25096086  0.70768695    -0.78600
O668        O  0.64445877  0.33241588  0.72078296    -0.80400
O669        O  0.74271981  0.35368375  0.68796620    -0.83200
C670        C  0.73595334  0.25437118  0.72085849     0.97600
C671        C  0.65506266  0.24363490  0.70780172     1.05000
O672        O  0.69736810  0.31417187  0.70442210    -1.12100
O673        O  0.67701028  0.35145040  0.67941433    -0.74600
O674        O  0.68475530  0.29680977  0.67452237    -0.78100
O675        O  0.72186238  0.27600765  0.72830593    -0.78700
C676        C  0.67366769  0.32583873  0.67153084     0.96500
O677        O  0.74799066  0.29762915  0.68586964    -0.76700
O678        O  0.65989549  0.37560936  0.70703019    -0.81900
C679        C  0.72000310  0.37255460  0.72792144     0.99100
C680        C  0.64046575  0.36145932  0.71515705     1.05100
O681        O  0.70491726  0.34721224  0.73249962    -0.77500
C682        C  0.75824003  0.32758405  0.68478715     1.03400
Fe683      Fe  0.52990202  0.27334400  0.54815356     1.65800
Fe684      Fe  0.53827118  0.35858829  0.55137591     1.73200
Fe685      Fe  0.56371890  0.31878259  0.52203590     1.54400
O686        O  0.58757642  0.27341768  0.52504283    -0.81300
O687        O  0.51553780  0.38160155  0.53509787    -0.79600
O688        O  0.57176818  0.25184836  0.54554960    -0.83800
O689        O  0.51491128  0.25508288  0.52865411    -0.78600
O690        O  0.60080469  0.34457050  0.52974711    -0.80400
O691        O  0.49584777  0.34363882  0.55944757    -0.83200
C692        C  0.51400519  0.26715191  0.51616333     0.97600
C693        C  0.58978839  0.25210486  0.53513779     1.05000
O694        O  0.54396955  0.31690241  0.54049363    -1.12100
O695        O  0.56115382  0.33828910  0.56847438    -0.74600
O696        O  0.54322264  0.28514088  0.56866298    -0.78100
O697        O  0.52837813  0.29372544  0.51253254    -0.78700
C698        C  0.55773104  0.30944853  0.57441711     0.96500
O699        O  0.48683979  0.29155446  0.55135437    -0.76700
O700        O  0.57865796  0.38116836  0.54422952    -0.81900
C701        C  0.52341404  0.38416398  0.52227662     0.99100
C702        C  0.60054242  0.37262044  0.53623831     1.05100
O703        O  0.54248388  0.36427326  0.51655542    -0.77500
C704        C  0.47791334  0.31883916  0.55698842     1.03400
C705        C  0.63391906  0.31205696  0.63541337     0.19100
C706        C  0.62211711  0.28385263  0.62821577    -0.19000
C707        C  0.60695140  0.28790675  0.61531433    -0.11300
C708        C  0.60321669  0.32048157  0.60925898     0.21300
C709        C  0.61525306  0.34862232  0.61640934    -0.20600
C710        C  0.63043498  0.34456797  0.62927918    -0.11500
C711        C  0.58833092  0.32631946  0.59529008    -0.15600
C712        C  0.57110483  0.30312814  0.58853789    -0.29500
C713        C  0.65078635  0.30635660  0.64890597    -0.03700
C714        C  0.65619561  0.33108938  0.65834368    -0.40300
H715        H  0.62480727  0.25848190  0.63255461     0.12500
H716        H  0.59891153  0.26529335  0.61006996     0.12100
H717        H  0.61317123  0.37395104  0.61194165     0.11600
H718        H  0.63999753  0.36698784  0.63411572     0.11800
H719        H  0.59165165  0.35111185  0.59036145     0.14500
H720        H  0.56659773  0.27850564  0.59332486     0.13300
H721        H  0.65863769  0.28074311  0.65123169     0.11000
H722        H  0.64734258  0.35644842  0.65654782     0.13000
C723        C  0.49177656  0.47123811  0.51166967     0.19100
C724        C  0.49450622  0.50286963  0.51829743    -0.19000
C725        C  0.48909275  0.53295329  0.51080195    -0.11300
C726        C  0.48035664  0.53179008  0.49655106     0.21300
C727        C  0.47709255  0.50008172  0.49002675    -0.20600
C728        C  0.48257739  0.47005725  0.49750607    -0.11500
C729        C  0.47496082  0.56279561  0.48798008    -0.15600
C730        C  0.46803928  0.59333342  0.49339085    -0.29500
C731        C  0.49933114  0.44010613  0.51975304    -0.03700
C732        C  0.51114111  0.41226612  0.51371529    -0.40300
H733        H  0.50163428  0.50433407  0.52921155     0.12500
H734        H  0.49248484  0.55687437  0.51613070     0.12100
H735        H  0.47018266  0.49852101  0.47908455     0.11600
H736        H  0.47945156  0.44604748  0.49219256     0.11800
H737        H  0.47483599  0.55974453  0.47660307     0.14500
H738        H  0.46594025  0.59672073  0.50467656     0.13300
H739        H  0.49801564  0.44140671  0.53117277     0.11000
H740        H  0.51502523  0.41162370  0.50243224     0.13000
C741        C  0.38492314  0.68693949  0.39541602     0.19100
C742        C  0.36787944  0.66116752  0.38892192    -0.19000
C743        C  0.35539359  0.66603408  0.37548555    -0.11300
C744        C  0.35955570  0.69698632  0.36816426     0.21300
C745        C  0.37574865  0.72319462  0.37479829    -0.20600
C746        C  0.38840645  0.71827711  0.38823655    -0.11500
C747        C  0.34637042  0.70276583  0.35384262    -0.15600
C748        C  0.34302024  0.67727627  0.34457959    -0.29500
C749        C  0.39779398  0.68026805  0.40976825    -0.03700
C750        C  0.42029605  0.69884772  0.41558465    -0.40300
H751        H  0.36426987  0.63703948  0.39425378     0.12500
H752        H  0.34204726  0.64565115  0.37096961     0.12100
H753        H  0.37880033  0.74747770  0.36952225     0.11600
H754        H  0.40038254  0.73935679  0.39297144     0.11800
H755        H  0.33991579  0.72842931  0.35079477     0.14500
H756        H  0.35122128  0.65210326  0.34739769     0.13300
H757        H  0.38881568  0.65865190  0.41564749     0.11000
H758        H  0.43031931  0.71986632  0.40975934     0.13000
C759        C  0.26156324  0.54220833  0.25851998     0.19100
C760        C  0.25603212  0.51052902  0.26497413    -0.19000
C761        C  0.24720516  0.48243965  0.25702945    -0.11300
C762        C  0.24394247  0.48535564  0.24233548     0.21300
C763        C  0.24947176  0.51703843  0.23586782    -0.20600
C764        C  0.25828685  0.54518219  0.24382890    -0.11500
C765        C  0.23329651  0.45680371  0.23341780    -0.15600
C766        C  0.23149005  0.42401351  0.23764168    -0.29500
C767        C  0.27206453  0.57060299  0.26754933    -0.03700
C768        C  0.27438742  0.60353929  0.26353854    -0.40300
H769        H  0.25843690  0.50748120  0.27627785     0.12500
H770        H  0.24251695  0.45888390  0.26254771     0.12100
H771        H  0.24701261  0.52004306  0.22456491     0.11600
H772        H  0.26286248  0.56884329  0.23836532     0.11800
H773        H  0.22611821  0.46341973  0.22278066     0.14500
H774        H  0.23933221  0.41610860  0.24798572     0.13300
H775        H  0.27862736  0.56362528  0.27823087     0.11000
H776        H  0.26733414  0.61188811  0.25313151     0.13000
C777        C  0.14692168  0.31131025  0.13628651     0.19100
C778        C  0.16156245  0.30874231  0.12320208    -0.19000
C779        C  0.14456855  0.30766388  0.11069393    -0.11300
C780        C  0.11256605  0.30807874  0.11111167     0.21300
C781        C  0.09795150  0.30936177  0.12423389    -0.20600
C782        C  0.11492913  0.31147192  0.13669569    -0.11500
C783        C  0.09390940  0.30627256  0.09806564    -0.15600
C784        C  0.10082342  0.32408356  0.08632003    -0.29500
C785        C  0.16527326  0.31309600  0.14942576    -0.03700
C786        C  0.15835086  0.33478581  0.15983320    -0.40300
H787        H  0.18618483  0.30816739  0.12265593     0.12500
H788        H  0.15640086  0.30593957  0.10072550     0.12100
H789        H  0.07332443  0.30928662  0.12481769     0.11600
H790        H  0.10306133  0.31269728  0.14667163     0.11800
H791        H  0.07269756  0.29199856  0.09850090     0.14500
H792        H  0.12052687  0.34085949  0.08629871     0.13300
H793        H  0.18580833  0.29783522  0.15018741     0.11000
H794        H  0.13941858  0.35223682  0.15843829     0.13000
C795        C  0.74450221  0.45941478  0.74313468     0.19100
C796        C  0.74844548  0.49151860  0.73677835    -0.19000
C797        C  0.75319019  0.52055922  0.74490041    -0.11300
C798        C  0.75401243  0.51826036  0.75969304     0.21300
C799        C  0.75020065  0.48617068  0.76607423    -0.20600
C800        C  0.74542290  0.45705584  0.75793724    -0.11500
C801        C  0.76115040  0.54803882  0.76875109    -0.15600
C802        C  0.75912973  0.58075993  0.76446844    -0.29500
C803        C  0.73900184  0.42971336  0.73378380    -0.03700
C804        C  0.73097148  0.39815182  0.73812218    -0.40300
H805        H  0.74798337  0.49419712  0.72540756     0.12500
H806        H  0.75698268  0.54443824  0.73946505     0.12100
H807        H  0.75113687  0.48355967  0.77744000     0.11600
H808        H  0.74279752  0.43298935  0.76335435     0.11800
H809        H  0.76937375  0.54258936  0.77933610     0.14500
H810        H  0.75018595  0.58705784  0.75412142     0.13300
H811        H  0.73964502  0.43488923  0.72251840     0.11000
H812        H  0.72893432  0.39201181  0.74922346     0.13000
C813        C  0.00570708  0.47070407  0.00691834     0.19100
C814        C  0.99556588  0.50045210  0.01351297    -0.19000
C815        C  0.99255870  0.53089040  0.00593180    -0.11300
C816        C  0.99996011  0.53230120  0.99152696     0.21300
C817        C  0.01007323  0.50251699  0.98493659    -0.20600
C818        C  0.01305677  0.47209511  0.99251215    -0.11500
C819        C  0.99537213  0.56320653  0.98265622    -0.15600
C820        C  0.98861755  0.59452204  0.98749437    -0.29500
C821        C  0.01077679  0.43986703  0.01575003    -0.03700
C822        C  0.01571213  0.40834701  0.01071812    -0.40300
H823        H  0.98996106  0.50016627  0.02462754     0.12500
H824        H  0.98401848  0.55286499  0.01140655     0.12100
H825        H  0.01577347  0.50277337  0.97383120     0.11600
H826        H  0.02176237  0.45014631  0.98706419     0.11800
H827        H  0.99587890  0.55927673  0.97133282     0.14500
H828        H  0.98813928  0.59971549  0.99868770     0.13300
H829        H  0.01203394  0.44386562  0.02705780     0.11000
H830        H  0.01387562  0.40317010  0.99954449     0.13000
C831        C  0.86038257  0.67771870  0.86002735     0.19100
C832        C  0.88037543  0.65334568  0.86562517    -0.19000
C833        C  0.89620376  0.65936776  0.87816996    -0.11300
C834        C  0.89205343  0.68985565  0.88564175     0.21300
C835        C  0.87223685  0.71440722  0.88001099    -0.20600
C836        C  0.85638905  0.70839193  0.86741979    -0.11500
C837        C  0.90827869  0.69672403  0.89919541    -0.15600
C838        C  0.91731826  0.67145020  0.90786779    -0.29500
C839        C  0.84375244  0.66970926  0.84669566    -0.03700
C840        C  0.83152264  0.69356811  0.83817736    -0.40300
H841        H  0.88402705  0.62958803  0.86018189     0.12500
H842        H  0.91201306  0.64019211  0.88182628     0.12100
H843        H  0.86859108  0.73809614  0.88550495     0.11600
H844        H  0.84064975  0.72759009  0.86373316     0.11800
H845        H  0.91183556  0.72296097  0.90232029     0.14500
H846        H  0.91196649  0.64534352  0.90515824     0.13300
H847        H  0.84230933  0.64320862  0.84358725     0.11000
H848        H  0.83393451  0.72025211  0.84077789     0.13000
C849        C  0.84762748  0.90453793  0.95661349     0.19100
C850        C  0.87941476  0.90424922  0.95501923    -0.19000
C851        C  0.89512381  0.87343511  0.95439840    -0.11300
C852        C  0.87958135  0.84229091  0.95560430     0.21300
C853        C  0.84783246  0.84246446  0.95734736    -0.20600
C854        C  0.83199783  0.87335853  0.95769041    -0.11500
C855        C  0.89715822  0.81039079  0.95404661    -0.15600
C856        C  0.89056612  0.78081092  0.96067761    -0.29500
C857        C  0.83005809  0.93678502  0.95629958    -0.03700
C858        C  0.84109042  0.96669023  0.96099393    -0.40300
H859        H  0.89208916  0.92772455  0.95377606     0.12500
H860        H  0.91956474  0.87391051  0.95287872     0.12100
H861        H  0.83516520  0.81884267  0.95798707     0.11600
H862        H  0.80744440  0.87293071  0.95874195     0.11800
H863        H  0.91795936  0.81213264  0.94788038     0.14500
H864        H  0.87152857  0.77919085  0.96793780     0.13300
H865        H  0.80667291  0.93554735  0.95256265     0.11000
H866        H  0.86337415  0.96783877  0.96593649     0.13000
C867        C  0.94762119  0.21358675  0.00228141     0.19100
C868        C  0.95042644  0.20455373  0.98803574    -0.19000
C869        C  0.93152576  0.17963765  0.98211870    -0.11300
C870        C  0.90912431  0.16333407  0.99034370     0.21300
C871        C  0.90615494  0.17261490  0.00453946    -0.20600
C872        C  0.92490751  0.19755875  0.01042333    -0.11500
C873        C  0.88771625  0.13729069  0.98467647    -0.15600
C874        C  0.88119511  0.13299080  0.97089277    -0.29500
C875        C  0.96913567  0.23923783  0.00823577    -0.03700
C876        C  0.97487287  0.24240872  0.02213255    -0.40300
H877        H  0.96766338  0.21645596  0.98149547     0.12500
H878        H  0.93488273  0.17305105  0.97119601     0.12100
H879        H  0.88888343  0.16082807  0.01109978     0.11600
H880        H  0.92114587  0.20429341  0.02130017     0.11800
H881        H  0.87415166  0.12347590  0.99240380     0.14500
H882        H  0.89286945  0.14787796  0.96289858     0.13300
H883        H  0.98249249  0.25425011  0.00082649     0.11000
H884        H  0.96315149  0.22636710  0.02971607     0.13000
C885        C  0.88621223  0.89993713  0.78490393     0.19100
C886        C  0.90162389  0.86883438  0.78378449    -0.19000
C887        C  0.88546439  0.83815007  0.78336373    -0.11300
C888        C  0.85350940  0.83812711  0.78419176     0.21300
C889        C  0.83815305  0.86926478  0.78516631    -0.20600
C890        C  0.85425569  0.89987308  0.78548294    -0.11500
C891        C  0.83537545  0.80642603  0.78533554    -0.15600
C892        C  0.84468243  0.77559164  0.78102908    -0.29500
C893        C  0.90412046  0.93166147  0.78649908    -0.03700
C894        C  0.89351255  0.96262821  0.78293168    -0.40300
H895        H  0.92626987  0.86825907  0.78347829     0.12500
H896        H  0.89812224  0.81461782  0.78295767     0.12100
H897        H  0.81356228  0.86987754  0.78599284     0.11600
H898        H  0.84162217  0.92322596  0.78675423     0.11800
H899        H  0.81276874  0.80884533  0.78986037     0.14500
H900        H  0.86620244  0.77253841  0.77560114     0.13300
H901        H  0.92726558  0.92930236  0.79046014     0.11000
H902        H  0.87151712  0.96534862  0.77782420     0.13000
C903        C  0.84509701  0.05391382  0.88634362     0.19100
C904        C  0.86331095  0.02791729  0.88087899    -0.19000
C905        C  0.87872675  0.03243291  0.86805803    -0.11300
C906        C  0.87579311  0.06301259  0.86029078     0.21300
C907        C  0.85694999  0.08860191  0.86565551    -0.20600
C908        C  0.84167857  0.08411085  0.87843894    -0.11500
C909        C  0.89215479  0.06995469  0.84677478    -0.15600
C910        C  0.90734909  0.04646733  0.83929526    -0.29500
C911        C  0.83003992  0.04932936  0.90031202    -0.03700
C912        C  0.82572098  0.07587913  0.90891697    -0.40300
H913        H  0.86622098  0.00438058  0.88671652     0.12500
H914        H  0.89321508  0.01207522  0.86451714     0.12100
H915        H  0.85398516  0.11228681  0.85991853     0.11600
H916        H  0.82700840  0.10432638  0.88204635     0.11800
H917        H  0.89125190  0.09582602  0.84267553     0.14500
H918        H  0.90815733  0.02023548  0.84283911     0.13300
H919        H  0.82365371  0.02390946  0.90376704     0.11000
H920        H  0.83413846  0.10075078  0.90571661     0.13000
C921        C  0.81919463  0.15281233  0.76169995     0.19100
C922        C  0.80929113  0.14829031  0.74777431    -0.19000
C923        C  0.79044220  0.17212911  0.74120091    -0.11300
C924        C  0.78118020  0.20154845  0.74835910     0.21300
C925        C  0.79029094  0.20566538  0.76244446    -0.20600
C926        C  0.80923297  0.18170234  0.76905617    -0.11500
C927        C  0.76116866  0.22760293  0.74162359    -0.15600
C928        C  0.75824400  0.23123146  0.72754886    -0.29500
C929        C  0.84206013  0.12841484  0.76740108    -0.03700
C930        C  0.85237215  0.12740504  0.78079534    -0.40300
H931        H  0.81648794  0.12629658  0.74184271     0.12500
H932        H  0.78303208  0.16702431  0.73056061     0.12100
H933        H  0.78319688  0.22785371  0.76827341     0.11600
H934        H  0.81656570  0.18655542  0.77972642     0.11800
H935        H  0.74824690  0.24415368  0.74850257     0.14500
H936        H  0.77172086  0.21577587  0.72050546     0.13300
H937        H  0.85255930  0.11171347  0.75974254     0.11000
H938        H  0.84215854  0.14304526  0.78886095     0.13000
C939        C  0.33206145  0.57995555  0.48758853     0.19100
C940        C  0.32720736  0.54483467  0.48625524    -0.19000
C941        C  0.30894114  0.52707999  0.49591558    -0.11300
C942        C  0.29511728  0.54409909  0.50724105     0.21300
C943        C  0.30033038  0.57911922  0.50869851    -0.20600
C944        C  0.31847763  0.59690812  0.49899664    -0.11500
C945        C  0.27543681  0.52615153  0.51775156    -0.15600
C946        C  0.25964045  0.49786498  0.51459043    -0.29500
C947        C  0.35433590  0.59712947  0.47803238    -0.03700
C948        C  0.35555816  0.63106231  0.47604979    -0.40300
H949        H  0.33801437  0.53094849  0.47781952     0.12500
H950        H  0.30641938  0.49990296  0.49465027     0.12100
H951        H  0.29034486  0.59279702  0.51740589     0.11600
H952        H  0.32261899  0.62363964  0.50081054     0.11800
H953        H  0.27209346  0.53786753  0.52796537     0.14500
H954        H  0.26105143  0.48751955  0.50404564     0.13300
H955        H  0.37218344  0.58144625  0.47356163     0.11000
H956        H  0.33793643  0.64710238  0.48043490     0.13000
C957        C  0.39781126  0.35328116  0.56623759     0.19100
C958        C  0.38610542  0.38042916  0.57407452    -0.19000
C959        C  0.35465125  0.38599016  0.57486783    -0.11300
C960        C  0.33415890  0.36464667  0.56766353     0.21300
C961        C  0.34577187  0.33686904  0.56023950    -0.20600
C962        C  0.37715564  0.33137795  0.55939894    -0.11500
C963        C  0.30086012  0.37156766  0.56686596    -0.15600
C964        C  0.28942739  0.40324357  0.56735186    -0.29500
C965        C  0.43149440  0.34998696  0.56462041    -0.03700
C966        C  0.44515398  0.32114229  0.56044939    -0.40300
H967        H  0.40138749  0.39767803  0.57946229     0.12500
H968        H  0.34654639  0.40717494  0.58101476     0.12100
H969        H  0.33054849  0.32012828  0.55454772     0.11600
H970        H  0.38494042  0.31071995  0.55289762     0.11800
H971        H  0.28588379  0.35072222  0.56393632     0.14500
H972        H  0.30455823  0.42463735  0.56916558     0.13300
H973        H  0.44541523  0.37233087  0.56663728     0.11000
H974        H  0.43177963  0.29825596  0.55889002     0.13000
C975        C  0.97218109  0.22383595  0.75949474     0.19100
C976        C  0.97832192  0.25520968  0.76583905    -0.19000
C977        C  0.98425824  0.28405717  0.75760900    -0.11300
C978        C  0.98368766  0.28202529  0.74281093     0.21300
C979        C  0.97665750  0.25082073  0.73650968    -0.20600
C980        C  0.97083240  0.22204146  0.74472481    -0.11500
C981        C  0.99302972  0.31050183  0.73348290    -0.15600
C982        C  0.99780833  0.34267637  0.73769858    -0.29500
C983        C  0.96582743  0.19393624  0.76857787    -0.03700
C984        C  0.96913322  0.16166285  0.76424616    -0.40300
H985        H  0.97910526  0.25725126  0.77721365     0.12500
H986        H  0.99007910  0.30736172  0.76293914     0.12100
H987        H  0.97601537  0.24856686  0.72513834     0.11600
H988        H  0.96495639  0.19866377  0.73943347     0.11800
H989        H  0.99802109  0.30393563  0.72262076     0.14500
H990        H  0.99214872  0.35068797  0.74827607     0.13300
H991        H  0.95772775  0.19879496  0.77918647     0.11000
H992        H  0.97813967  0.15621828  0.75387138     0.13000
C993        C  0.10884256  0.44439546  0.63900185     0.19100
C994        C  0.09601590  0.45123413  0.62573777    -0.19000
C995        C  0.11401681  0.45069218  0.61357343    -0.11300
C996        C  0.14545748  0.44435955  0.61449271     0.21300
C997        C  0.15848379  0.43855159  0.62781483    -0.20600
C998        C  0.14027336  0.43801380  0.63995192    -0.11500
C999        C  0.16492942  0.44438112  0.60166844    -0.15600
C1000       C  0.15617351  0.42843739  0.58983942    -0.29500
C1001       C  0.08920208  0.44531346  0.65172757    -0.03700
C1002       C  0.09061152  0.42140830  0.66193132    -0.40300
H1003       H  0.07191896  0.45657486  0.62477727     0.12500
H1004       H  0.10347152  0.45584976  0.60346270     0.12100
H1005       H  0.18269144  0.43391541  0.62879303     0.11600
H1006       H  0.15081819  0.43330266  0.65009998     0.11800
H1007       H  0.18745433  0.45578306  0.60223343     0.14500
H1008       H  0.13491617  0.41421034  0.58986079     0.13300
H1009       H  0.07169431  0.46474297  0.65220981     0.11000
H1010       H  0.10621206  0.40020445  0.66079832     0.13000
C1011       C  0.91015970  0.58322007  0.76052133     0.19100
C1012       C  0.91423921  0.58341998  0.74584245    -0.19000
C1013       C  0.93396519  0.56057267  0.73939122    -0.11300
C1014       C  0.95018075  0.53660432  0.74747276     0.21300
C1015       C  0.94677505  0.53685460  0.76220413    -0.20600
C1016       C  0.92688137  0.55977449  0.76869473    -0.11500
C1017       C  0.97187429  0.51227597  0.74095512    -0.15600
C1018       C  0.97105176  0.50336528  0.72724176    -0.29500
C1019       C  0.88721202  0.60703533  0.76642501    -0.03700
C1020       C  0.87814830  0.60859858  0.78000855    -0.40300
H1021       H  0.90189215  0.60129354  0.73924920     0.12500
H1022       H  0.93670170  0.56231135  0.72809535     0.12100
H1023       H  0.95936444  0.51902117  0.76871232     0.11600
H1024       H  0.92468321  0.55874967  0.78002488     0.11800
H1025       H  0.98931595  0.50141055  0.74774849     0.14500
H1026       H  0.95315220  0.51277495  0.72037983     0.13300
H1027       H  0.87550203  0.62294691  0.75874323     0.11000
H1028       H  0.88890070  0.59315982  0.78809200     0.13000
C1029       C  0.83987804  0.36088158  0.67987657     0.19100
C1030       C  0.85417492  0.39141404  0.67598886    -0.19000
C1031       C  0.88593433  0.39416286  0.67609302    -0.11300
C1032       C  0.90416667  0.36629824  0.68022516     0.21300
C1033       C  0.88977163  0.33556949  0.68384113    -0.20600
C1034       C  0.85805622  0.33282010  0.68368986    -0.11500
C1035       C  0.93763486  0.36923310  0.68255980    -0.15600
C1036       C  0.95450217  0.39586179  0.67818744    -0.29500
C1037       C  0.80619791  0.35994664  0.68129615    -0.03700
C1038       C  0.79018732  0.33094505  0.68024512    -0.40300
H1039       H  0.84068506  0.41350783  0.67321662     0.12500
H1040       H  0.89570139  0.41868861  0.67357488     0.12100
H1041       H  0.90309169  0.31389015  0.68729238     0.11600
H1042       H  0.84793650  0.30916162  0.68724823     0.11800
H1043       H  0.94831622  0.34994443  0.68917079     0.14500
H1044       H  0.94466420  0.41539757  0.67149258     0.13300
H1045       H  0.79456965  0.38341139  0.68393936     0.11000
H1046       H  0.80158289  0.30775688  0.67707280     0.13000
C1047       C  0.36532823  0.85433708  0.29679490     0.19100
C1048       C  0.39729064  0.85581314  0.29662509    -0.19000
C1049       C  0.41228344  0.88716725  0.29560876    -0.11300
C1050       C  0.39572873  0.91757075  0.29448125     0.21300
C1051       C  0.36376265  0.91612971  0.29460511    -0.20600
C1052       C  0.34875623  0.88479417  0.29589629    -0.11500
C1053       C  0.41256687  0.95032600  0.29420484    -0.15600
C1054       C  0.40268548  0.97862274  0.28754082    -0.29500
C1055       C  0.34862110  0.82165034  0.29839457    -0.03700
C1056       C  0.35868123  0.79198702  0.29314093    -0.40300
H1057       H  0.41073855  0.83289982  0.29765203     0.12500
H1058       H  0.43694450  0.88770596  0.29574442     0.12100
H1059       H  0.35036802  0.93918005  0.29413144     0.11600
H1060       H  0.32410176  0.88431072  0.29616609     0.11800
H1061       H  0.43482140  0.95065197  0.29923530     0.14500
H1062       H  0.38176605  0.97809932  0.28143269     0.13300
H1063       H  0.32614187  0.82254014  0.30315689     0.11000
H1064       H  0.37975553  0.79126282  0.28718557     0.13000
C1065       C  0.28609357  0.22044689  0.24921662     0.19100
C1066       C  0.28795333  0.21694727  0.26394578    -0.19000
C1067       C  0.30639037  0.19183294  0.27016545    -0.11300
C1068       C  0.32320710  0.16931988  0.26173120     0.21300
C1069       C  0.32030700  0.17204813  0.24701336    -0.20600
C1070       C  0.30209411  0.19721386  0.24082495    -0.11500
C1071       C  0.34508449  0.14367772  0.26754536    -0.15600
C1072       C  0.35667922  0.14394597  0.28074505    -0.29500
C1073       C  0.26598181  0.24715588  0.24292137    -0.03700
C1074       C  0.26994179  0.26014929  0.22983192    -0.40300
H1075       H  0.27532675  0.23396697  0.27067716     0.12500
H1076       H  0.30726822  0.19027127  0.28152825     0.12100
H1077       H  0.33262226  0.15491050  0.24020914     0.11600
H1078       H  0.30032434  0.19799402  0.22945974     0.11800
H1079       H  0.35495183  0.12620748  0.26000732     0.14500
H1080       H  0.34863789  0.16223913  0.28835409     0.13300
H1081       H  0.24703935  0.25605299  0.24924265     0.11000
H1082       H  0.28940088  0.25239392  0.22361284     0.13000
C1083       C  0.34524505  0.90764072  0.45542050     0.19100
C1084       C  0.33129928  0.87720193  0.45974777    -0.19000
C1085       C  0.34818297  0.84717883  0.46053667    -0.11300
C1086       C  0.37907125  0.84725619  0.45669907     0.21300
C1087       C  0.39268711  0.87748954  0.45197226    -0.20600
C1088       C  0.37602622  0.90754275  0.45145795    -0.11500
C1089       C  0.39755804  0.81609917  0.45699079    -0.15600
C1090       C  0.39453034  0.79184228  0.46692875    -0.29500
C1091       C  0.32735050  0.93925983  0.45490909    -0.03700
C1092       C  0.33940122  0.96903909  0.45890713    -0.40300
H1093       H  0.30748002  0.87680191  0.46269280     0.12500
H1094       H  0.33699128  0.82391662  0.46387986     0.12100
H1095       H  0.41637545  0.87789538  0.44880312     0.11600
H1096       H  0.38708191  0.93058086  0.44775877     0.11800
H1097       H  0.41574822  0.81427283  0.44927857     0.14500
H1098       H  0.37790443  0.79453915  0.47530470     0.13300
H1099       H  0.30340799  0.93772416  0.45205962     0.11000
H1100       H  0.36238416  0.97002657  0.46314486     0.13000
C1101       C  0.24824258  0.28530098  0.50746504     0.19100
C1102       C  0.25813286  0.25496488  0.51388052    -0.19000
C1103       C  0.26606120  0.22682876  0.50578290    -0.11300
C1104       C  0.26419571  0.22841003  0.49100607     0.21300
C1105       C  0.25499358  0.25892233  0.48455800    -0.20600
C1106       C  0.24704669  0.28707494  0.49264978    -0.11500
C1107       C  0.27308019  0.19955955  0.48191725    -0.15600
C1108       C  0.27398237  0.16688360  0.48628052    -0.29500
C1109       C  0.23926146  0.31396507  0.51671591    -0.03700
C1110       C  0.22490152  0.34233965  0.51226704    -0.40300
H1111       H  0.25965524  0.25294407  0.52525214     0.12500
H1112       H  0.27410793  0.20424151  0.51116174     0.12100
H1113       H  0.25386915  0.26097597  0.47317751     0.11600
H1114       H  0.24028261  0.30998379  0.48715608     0.11800
H1115       H  0.27884590  0.20561370  0.47104970     0.14500
H1116       H  0.26716618  0.15991295  0.49689593     0.13300
H1117       H  0.24334253  0.31065565  0.52794578     0.11000
H1118       H  0.21957104  0.34629640  0.50123140     0.13000
C1119       C  0.38796697  0.08096962  0.35993718     0.19100
C1120       C  0.35655705  0.07971595  0.36256762    -0.19000
C1121       C  0.34546930  0.07924815  0.37638308    -0.11300
C1122       C  0.36561187  0.08085231  0.38789313     0.21300
C1123       C  0.39706266  0.08201552  0.38528450    -0.20600
C1124       C  0.40820099  0.08162546  0.37144426    -0.11500
C1125       C  0.35408417  0.08417751  0.40254883    -0.15600
C1126       C  0.32899423  0.06777070  0.40710944    -0.29500
C1127       C  0.39875592  0.08489719  0.34517059    -0.03700
C1128       C  0.42502067  0.07164863  0.34044690    -0.40300
H1129       H  0.34052278  0.07962049  0.35388580     0.12500
H1130       H  0.32108336  0.07912953  0.37802808     0.12100
H1131       H  0.41300585  0.08365020  0.39397281     0.11600
H1132       H  0.43252907  0.08338239  0.36975705     0.11800
H1133       H  0.36670152  0.10026853  0.40977431     0.14500
H1134       H  0.31786960  0.04949922  0.40026633     0.13300
H1135       H  0.38420694  0.09875204  0.33786190     0.11000
H1136       H  0.43855532  0.05548043  0.34733638     0.13000
C1137       C  0.42829642  0.16754197  0.47577447     0.19100
C1138       C  0.43053276  0.20316736  0.47570195    -0.19000
C1139       C  0.44928799  0.21998950  0.48534237    -0.11300
C1140       C  0.46657685  0.20147009  0.49525775     0.21300
C1141       C  0.46541696  0.16583189  0.49493980    -0.20600
C1142       C  0.44683208  0.14898309  0.48522437    -0.11500
C1143       C  0.48477982  0.21841459  0.50646694    -0.15600
C1144       C  0.49572868  0.25025343  0.50515296    -0.29500
C1145       C  0.40427563  0.15135529  0.46687465    -0.03700
C1146       C  0.39282424  0.12026179  0.46965215    -0.40300
H1147       H  0.41661403  0.21818829  0.46858620     0.12500
H1148       H  0.44901891  0.24748624  0.48536290     0.12100
H1149       H  0.47872090  0.15093328  0.50235150     0.11600
H1150       H  0.44684639  0.12151033  0.48539984     0.11800
H1151       H  0.49009544  0.20382894  0.51592407     0.14500
H1152       H  0.49253437  0.26420714  0.49535922     0.13300
H1153       H  0.39237783  0.16744390  0.45931590     0.11000
H1154       H  0.40286660  0.10457895  0.47784497     0.13000
C1155       C  0.48367051  0.24335598  0.25978414     0.19100
C1156       C  0.49761443  0.27153981  0.26612661    -0.19000
C1157       C  0.50462828  0.30063005  0.25820306    -0.11300
C1158       C  0.49738484  0.30212568  0.24377555     0.21300
C1159       C  0.48263632  0.27431449  0.23756023    -0.20600
C1160       C  0.47565426  0.24531999  0.24545986    -0.11500
C1161       C  0.50715652  0.33047526  0.23447326    -0.15600
C1162       C  0.51678003  0.36120766  0.23887283    -0.29500
C1163       C  0.47679295  0.21292666  0.26852723    -0.03700
C1164       C  0.47228001  0.18167727  0.26317109    -0.40300
H1165       H  0.50369338  0.27075878  0.27719397     0.12500
H1166       H  0.51651219  0.32121911  0.26333457     0.12100
H1167       H  0.47674109  0.27486625  0.22646633     0.11600
H1168       H  0.46378037  0.22476615  0.24029456     0.11800
H1169       H  0.50733689  0.32508640  0.22324974     0.14500
H1170       H  0.51559418  0.36823173  0.24988585     0.13300
H1171       H  0.47525260  0.21654580  0.27985013     0.11000
H1172       H  0.47460274  0.17719713  0.25196060     0.13000
C1173       C  0.42580993  0.60511853  0.26041601     0.19100
C1174       C  0.42688555  0.60347812  0.24564575    -0.19000
C1175       C  0.44546330  0.57990804  0.23886843    -0.11300
C1176       C  0.46353807  0.55714761  0.24672276     0.21300
C1177       C  0.46329917  0.55950176  0.26149167    -0.20600
C1178       C  0.44464897  0.58312202  0.26829516    -0.11500
C1179       C  0.48399934  0.53190109  0.23992540    -0.15600
C1180       C  0.48113762  0.52159644  0.22644464    -0.29500
C1181       C  0.40367518  0.62909144  0.26689532    -0.03700
C1182       C  0.39509855  0.62851243  0.28054414    -0.40300
H1183       H  0.41293695  0.62027029  0.23926931     0.12500
H1184       H  0.44575760  0.58008219  0.22748317     0.12100
H1185       H  0.47745093  0.54279446  0.26781149     0.11600
H1186       H  0.44519741  0.58384447  0.27966711     0.11800
H1187       H  0.50242661  0.52164317  0.24629707     0.14500
H1188       H  0.46251131  0.53068720  0.21995341     0.13300
H1189       H  0.39151744  0.64583490  0.25969035     0.11000
H1190       H  0.40581891  0.61134058  0.28799701     0.13000
C1191       C  0.40354605  0.40074983  0.17842663     0.19100
C1192       C  0.37931131  0.42367485  0.17664593    -0.19000
C1193       C  0.34907374  0.41225005  0.17639504    -0.11300
C1194       C  0.34228485  0.37740133  0.17802044     0.21300
C1195       C  0.36654229  0.35435546  0.17907670    -0.20600
C1196       C  0.39673521  0.36574061  0.17931655    -0.11500
C1197       C  0.31063128  0.36384414  0.17943013    -0.15600
C1198       C  0.28607703  0.38309826  0.18227256    -0.29500
C1199       C  0.43501781  0.41479169  0.18015986    -0.03700
C1200       C  0.46018216  0.39577438  0.18223999    -0.40300
H1201       H  0.38372798  0.45072587  0.17576680     0.12500
H1202       H  0.33131253  0.43097592  0.17510345     0.12100
H1203       H  0.36210812  0.32735951  0.18020941     0.11600
H1204       H  0.41427216  0.34680584  0.18059358     0.11800
H1205       H  0.30791596  0.33636540  0.17941173     0.14500
H1206       H  0.28807450  0.41052113  0.18282405     0.13300
H1207       H  0.43729483  0.44230289  0.18047909     0.11000
H1208       H  0.45901981  0.36830355  0.18196768     0.13000
C1209       C  0.76051359  0.22389117  0.99285820     0.19100
C1210       C  0.75165982  0.25419063  0.98610931    -0.19000
C1211       C  0.74878377  0.28428553  0.99367744    -0.11300
C1212       C  0.75511403  0.28468860  0.00819009     0.21300
C1213       C  0.76429245  0.25445247  0.01490317    -0.20600
C1214       C  0.76710178  0.22433560  0.00733452    -0.11500
C1215       C  0.74951077  0.31485771  0.01702559    -0.15600
C1216       C  0.74472015  0.34665866  0.01210070    -0.29500
C1217       C  0.76492040  0.19331106  0.98413414    -0.03700
C1218       C  0.76700925  0.16113320  0.98909960    -0.40300
H1219       H  0.74672149  0.25452801  0.97491718     0.12500
H1220       H  0.74088518  0.30672025  0.98815418     0.12100
H1221       H  0.76914282  0.25407429  0.02610124     0.11600
H1222       H  0.77489380  0.20179006  0.01282330     0.11800
H1223       H  0.74748007  0.30998294  0.02827675     0.14500
H1224       H  0.74780401  0.35297550  0.00105361     0.13300
H1225       H  0.76746153  0.19795648  0.97288909     0.11000
H1226       H  0.76328306  0.15526831  0.00015039     0.13000
C1227       C  0.63910822  0.45643080  0.10912366     0.19100
C1228       C  0.61516252  0.47939695  0.11121510    -0.19000
C1229       C  0.59869287  0.47912246  0.12384038    -0.11300
C1230       C  0.60592021  0.45602995  0.13469811     0.21300
C1231       C  0.63057466  0.43370482  0.13273511    -0.20600
C1232       C  0.64686807  0.43384421  0.12009860    -0.11500
C1233       C  0.58804748  0.45683211  0.14804731    -0.15600
C1234       C  0.58765482  0.43105754  0.15748457    -0.29500
C1235       C  0.65623949  0.45737223  0.09562106    -0.03700
C1236       C  0.67009994  0.42983481  0.09026830    -0.40300
H1237       H  0.60899713  0.49738822  0.10300299     0.12500
H1238       H  0.58015136  0.49695164  0.12510807     0.12100
H1239       H  0.63798955  0.41655516  0.14098750     0.11600
H1240       H  0.66601374  0.41677207  0.11911569     0.11800
H1241       H  0.57439892  0.47928898  0.15007311     0.14500
H1242       H  0.60008229  0.40784770  0.15542023     0.13300
H1243       H  0.65636591  0.48105143  0.08963893     0.11000
H1244       H  0.66825462  0.40545939  0.09565080     0.13000
C1245       C  0.83263907  0.59020842  0.98502333     0.19100
C1246       C  0.82504474  0.59374021  0.99928989    -0.19000
C1247       C  0.80587764  0.57036553  0.00597540    -0.11300
C1248       C  0.79369456  0.54268480  0.99853569     0.21300
C1249       C  0.80040906  0.53964087  0.98413286    -0.20600
C1250       C  0.81983884  0.56304081  0.97742080    -0.11500
C1251       C  0.77281971  0.51779387  0.00543763    -0.15600
C1252       C  0.77399347  0.51082111  0.01935101    -0.29500
C1253       C  0.85457514  0.61509963  0.97887714    -0.03700
C1254       C  0.87112022  0.60995261  0.96713997    -0.40300
H1255       H  0.83427511  0.61457149  0.00538498     0.12500
H1256       H  0.80028208  0.57448702  0.01692237     0.12100
H1257       H  0.79081202  0.51892646  0.97809734     0.11600
H1258       H  0.82450768  0.55980769  0.96633334     0.11800
H1259       H  0.75608969  0.50496038  0.99889944     0.14500
H1260       H  0.79171654  0.52211818  0.02579619     0.13300
H1261       H  0.85972447  0.63726197  0.98524681     0.11000
H1262       H  0.86752679  0.58743061  0.96081624     0.13000
C1263       C  0.91677031  0.37938975  0.06534586     0.19100
C1264       C  0.90249218  0.41119103  0.06460929    -0.19000
C1265       C  0.87069511  0.41347504  0.06432500    -0.11300
C1266       C  0.85257264  0.38382193  0.06460652     0.21300
C1267       C  0.86688493  0.35207584  0.06513996    -0.20600
C1268       C  0.89857342  0.34980386  0.06554768    -0.11500
C1269       C  0.81895333  0.38497187  0.06308022    -0.15600
C1270       C  0.80220002  0.41161966  0.06718053    -0.29500
C1271       C  0.95045813  0.37732584  0.06430950    -0.03700
C1272       C  0.96599469  0.35059071  0.06942510    -0.40300
H1273       H  0.91598300  0.43426861  0.06403569     0.12500
H1274       H  0.86050230  0.43839666  0.06333568     0.12100
H1275       H  0.85348675  0.32889919  0.06501784     0.11600
H1276       H  0.90866010  0.32474090  0.06541708     0.11800
H1277       H  0.80779779  0.36351210  0.05806310     0.14500
H1278       H  0.81300255  0.43272136  0.07257419     0.13300
H1279       H  0.96222931  0.39650738  0.05804100     0.11000
H1280       H  0.95429881  0.33148171  0.07573173     0.13000
C1281       C  0.16225812  0.42187144  0.00934282     0.19100
C1282       C  0.16587885  0.45729564  0.01006119    -0.19000
C1283       C  0.18533181  0.47455050  0.00079380    -0.11300
C1284       C  0.20188554  0.45673795  0.99053320     0.21300
C1285       C  0.19788112  0.42141097  0.98959055    -0.20600
C1286       C  0.17838557  0.40408374  0.99888492    -0.11500
C1287       C  0.22326569  0.47438028  0.98068431    -0.15600
C1288       C  0.23800711  0.50304275  0.98430830    -0.29500
C1289       C  0.13958687  0.40533176  0.01891335    -0.03700
C1290       C  0.13594963  0.37148280  0.02043611    -0.40300
H1291       H  0.15329580  0.47182932  0.01774954     0.12500
H1292       H  0.18683762  0.50194111  0.00155407     0.12100
H1293       H  0.21001907  0.40712396  0.98167606     0.11600
H1294       H  0.17571002  0.37698421  0.99755165     0.11800
H1295       H  0.22845907  0.46245358  0.97068549     0.14500
H1296       H  0.23464733  0.51345339  0.99474807     0.13300
H1297       H  0.12369687  0.42197167  0.02427069     0.11000
H1298       H  0.15094421  0.35396672  0.01510451     0.13000
C1299       C  0.09884127  0.63923331  0.93039587     0.19100
C1300       C  0.11255258  0.61125417  0.92394933    -0.19000
C1301       C  0.14425264  0.60796078  0.92380820    -0.11300
C1302       C  0.16290815  0.63222050  0.93050817     0.21300
C1303       C  0.14918482  0.66086547  0.93648400    -0.20600
C1304       C  0.11750787  0.66433273  0.93648776    -0.11500
C1305       C  0.19634230  0.62750508  0.93229201    -0.15600
C1306       C  0.20930474  0.59656237  0.93250922    -0.29500
C1307       C  0.06516999  0.64029551  0.93170851    -0.03700
C1308       C  0.04973919  0.66969945  0.93212082    -0.40300
H1309       H  0.09866124  0.59169757  0.91913865     0.12500
H1310       H  0.15389694  0.58613455  0.91860786     0.12100
H1311       H  0.16293653  0.67993083  0.94170117     0.11600
H1312       H  0.10769557  0.68588394  0.94184356     0.11800
H1313       H  0.21000822  0.64952344  0.93511869     0.14500
H1314       H  0.19549959  0.57409364  0.93070779     0.13300
H1315       H  0.05297022  0.61631822  0.93273049     0.11000
H1316       H  0.06176850  0.69353243  0.93034577     0.13000
C1317       C  0.35320304  0.56329623  0.88569423     0.19100
C1318       C  0.35574039  0.53483057  0.87693157    -0.19000
C1319       C  0.37007917  0.53735304  0.86377706    -0.11300
C1320       C  0.38228751  0.56861436  0.85904584     0.21300
C1321       C  0.37907263  0.59722032  0.86765968    -0.20600
C1322       C  0.36470324  0.59472364  0.88076939    -0.11500
C1323       C  0.39791659  0.57288489  0.84517338    -0.15600
C1324       C  0.40920042  0.54693759  0.83762410    -0.29500
C1325       C  0.33751363  0.55952411  0.89959424    -0.03700
C1326       C  0.34064637  0.58209581  0.91010113    -0.40300
H1327       H  0.34660644  0.51046441  0.88028603     0.12500
H1328       H  0.37103417  0.51482629  0.85734462     0.12100
H1329       H  0.38774554  0.62173929  0.86422890     0.11600
H1330       H  0.36225081  0.61774874  0.88679812     0.11800
H1331       H  0.40136840  0.59869469  0.84129632     0.14500
H1332       H  0.40726488  0.52104464  0.84153636     0.13300
H1333       H  0.32306815  0.53735519  0.90124646     0.11000
H1334       H  0.35573578  0.60377002  0.90881689     0.13000
C1335       C  0.58781096  0.43191888  0.72791681     0.19100
C1336       C  0.59485809  0.45784845  0.73746900    -0.19000
C1337       C  0.57179867  0.47391275  0.74503972    -0.11300
C1338       C  0.54117681  0.46480130  0.74293728     0.21300
C1339       C  0.53400570  0.44003216  0.73288576    -0.20600
C1340       C  0.55714073  0.42336175  0.72555546    -0.11500
C1341       C  0.51637028  0.48120901  0.75094219    -0.15600
C1342       C  0.51908167  0.48864041  0.76470848    -0.29500
C1343       C  0.61300791  0.41380715  0.72085967    -0.03700
C1344       C  0.61256104  0.37996714  0.71892875    -0.40300
H1345       H  0.61833541  0.46504702  0.73935060     0.12500
H1346       H  0.57789210  0.49359517  0.75245823     0.12100
H1347       H  0.51050767  0.43301952  0.73095806     0.11600
H1348       H  0.55106267  0.40392525  0.71802700     0.11800
H1349       H  0.49481934  0.48549533  0.74558444     0.14500
H1350       H  0.53976954  0.48188149  0.77034574     0.13300
H1351       H  0.63402804  0.42778795  0.71896943     0.11000
H1352       H  0.59287666  0.36518401  0.72226246     0.13000
C1353       C  0.65365397  0.61758278  0.81777519     0.19100
C1354       C  0.64021437  0.58527030  0.81879023    -0.19000
C1355       C  0.60851296  0.58151432  0.81836588    -0.11300
C1356       C  0.58946928  0.61018403  0.81684046     0.21300
C1357       C  0.60296087  0.64248393  0.81608013    -0.20600
C1358       C  0.63458878  0.64622542  0.81653950    -0.11500
C1359       C  0.55599266  0.60734630  0.81446234    -0.15600
C1360       C  0.53980621  0.57922531  0.81750593    -0.29500
C1361       C  0.68731513  0.62044844  0.81628089    -0.03700
C1362       C  0.70258314  0.64932288  0.81905689    -0.40300
H1363       H  0.65433070  0.56276278  0.81948016     0.12500
H1364       H  0.59936789  0.55597348  0.81853748     0.12100
H1365       H  0.58899147  0.66491469  0.81466056     0.11600
H1366       H  0.64389363  0.67151829  0.81517085     0.11800
H1367       H  0.54464177  0.62850204  0.80924147     0.14500
H1368       H  0.55053073  0.55798300  0.82288340     0.13300
H1369       H  0.69940870  0.59905604  0.81176714     0.11000
H1370       H  0.69084073  0.67042263  0.82393847     0.13000
C1371       C  0.63741398  0.17453296  0.54589031     0.19100
C1372       C  0.63840805  0.15359276  0.53395223    -0.19000
C1373       C  0.65058561  0.12082527  0.53491796    -0.11300
C1374       C  0.66184236  0.10836841  0.54785884     0.21300
C1375       C  0.66212828  0.12993532  0.55954910    -0.20600
C1376       C  0.64978433  0.16253518  0.55861143    -0.11500
C1377       C  0.67409406  0.07345851  0.54955724    -0.15600
C1378       C  0.66651408  0.04738010  0.54113807    -0.29500
C1379       C  0.62009158  0.20677497  0.54604061    -0.03700
C1380       C  0.61322651  0.22534744  0.53450281    -0.40300
H1381       H  0.62865388  0.16176848  0.52402018     0.12500
H1382       H  0.65097183  0.10540939  0.52553393     0.12100
H1383       H  0.67110244  0.12115471  0.56957175     0.11600
H1384       H  0.64915996  0.17813243  0.56796837     0.11800
H1385       H  0.68992849  0.06906818  0.55819670     0.14500
H1386       H  0.65032514  0.05093518  0.53260658     0.13300
H1387       H  0.61109310  0.21459028  0.55617844     0.11000
H1388       H  0.62346961  0.21970888  0.52438903     0.13000
C1389       C  0.54082956  0.80387166  0.50325637     0.19100
C1390       C  0.53877047  0.83927693  0.50478732    -0.19000
C1391       C  0.55847905  0.85666978  0.51387521    -0.11300
C1392       C  0.58115793  0.83895957  0.52143593     0.21300
C1393       C  0.58288193  0.80347205  0.51998637    -0.20600
C1394       C  0.56305366  0.78611067  0.51100029    -0.11500
C1395       C  0.60452636  0.85619464  0.53033008    -0.15600
C1396       C  0.61164381  0.88950565  0.52932584    -0.29500
C1397       C  0.52029875  0.78627926  0.49317019    -0.03700
C1398       C  0.51057833  0.75409805  0.49515871    -0.40300
H1399       H  0.52176745  0.85351691  0.49895793     0.12500
H1400       H  0.55580607  0.88385997  0.51485305     0.12100
H1401       H  0.60019881  0.78913792  0.52556940     0.11600
H1402       H  0.56577096  0.75892650  0.50983891     0.11800
H1403       H  0.61912324  0.83989074  0.53669576     0.14500
H1404       H  0.59895870  0.90611224  0.52231372     0.13300
H1405       H  0.51163631  0.80082226  0.48424742     0.11000
H1406       H  0.51677245  0.74040887  0.50471498     0.13000
C1407       C  0.59104958  0.09240375  0.70510122     0.19100
C1408       C  0.62084234  0.09387106  0.69980795    -0.19000
C1409       C  0.63537573  0.12519185  0.69798191    -0.11300
C1410       C  0.62067091  0.15545037  0.70168716     0.21300
C1411       C  0.59074400  0.15403752  0.70686763    -0.20600
C1412       C  0.57594259  0.12270578  0.70839824    -0.11500
C1413       C  0.63719233  0.18795195  0.69983790    -0.15600
C1414       C  0.63418083  0.21430997  0.70867575    -0.29500
C1415       C  0.57469670  0.05971165  0.70644447    -0.03700
C1416       C  0.58838540  0.03077652  0.71063035    -0.40300
H1417       H  0.63264629  0.07090680  0.69679715     0.12500
H1418       H  0.65832639  0.12578433  0.69381921     0.12100
H1419       H  0.57862026  0.17707126  0.70948441     0.11600
H1420       H  0.55274721  0.12206807  0.71225939     0.11800
H1421       H  0.65475633  0.18887385  0.69178161     0.14500
H1422       H  0.61869739  0.21260830  0.71756434     0.13300
H1423       H  0.55034615  0.05972000  0.70435634     0.11000
H1424       H  0.61202952  0.03102282  0.71400331     0.13000
C1425       C  0.50141789  0.70742595  0.75804874     0.19100
C1426       C  0.49804717  0.74005635  0.76372471    -0.19000
C1427       C  0.50571268  0.76898856  0.75587919    -0.11300
C1428       C  0.51735636  0.76588101  0.74215041     0.21300
C1429       C  0.52117500  0.73321067  0.73655102    -0.20600
C1430       C  0.51345035  0.70424714  0.74439971    -0.11500
C1431       C  0.52519733  0.79574116  0.73316419    -0.15600
C1432       C  0.52830396  0.82775735  0.73793510    -0.29500
C1433       C  0.49139802  0.67785024  0.76669847    -0.03700
C1434       C  0.48600376  0.64647551  0.76162420    -0.40300
H1435       H  0.48879309  0.74326316  0.77420790     0.12500
H1436       H  0.50176524  0.79350367  0.76057953     0.12100
H1437       H  0.53020949  0.73004767  0.72602506     0.11600
H1438       H  0.51711664  0.67966138  0.73970327     0.11800
H1439       H  0.52948967  0.79083961  0.72208597     0.14500
H1440       H  0.52547835  0.83347544  0.74900307     0.13300
H1441       H  0.48618045  0.68289296  0.77767806     0.11000
H1442       H  0.48995913  0.64065788  0.75063944     0.13000
C1443       C  0.62985328  0.93025472  0.61216675     0.19100
C1444       C  0.59827494  0.93208613  0.61430519    -0.19000
C1445       C  0.58618115  0.93179413  0.62797184    -0.11300
C1446       C  0.60550672  0.92879030  0.63974552     0.21300
C1447       C  0.63706449  0.92713771  0.63759215    -0.20600
C1448       C  0.64917219  0.92822673  0.62397392    -0.11500
C1449       C  0.59341433  0.92377446  0.65422473    -0.15600
C1450       C  0.56775425  0.93838520  0.65898750    -0.29500
C1451       C  0.64210904  0.92781440  0.59760990    -0.03700
C1452       C  0.66894832  0.94173549  0.59388641    -0.40300
H1453       H  0.58293324  0.93330613  0.60537203     0.12500
H1454       H  0.56170845  0.93234129  0.62927718     0.12100
H1455       H  0.65237852  0.92438765  0.64648379     0.11600
H1456       H  0.67356944  0.92597291  0.62268764     0.11800
H1457       H  0.60660710  0.90781741  0.66135461     0.14500
H1458       H  0.55564860  0.95662206  0.65242250     0.13300
H1459       H  0.62856772  0.91461971  0.58975938     0.11000
H1460       H  0.68127877  0.95725298  0.60142273     0.13000
C1461       C  0.70869246  0.78711130  0.74661663     0.19100
C1462       C  0.70704333  0.79110266  0.73191505    -0.19000
C1463       C  0.68981404  0.81747906  0.72587678    -0.11300
C1464       C  0.67421583  0.84064894  0.73451187     0.21300
C1465       C  0.67702533  0.83732368  0.74918532    -0.20600
C1466       C  0.69397773  0.81100070  0.75517092    -0.11500
C1467       C  0.65316388  0.86731148  0.72904554    -0.15600
C1468       C  0.64099606  0.86775601  0.71600333    -0.29500
C1469       C  0.72750439  0.75944427  0.75288284    -0.03700
C1470       C  0.72202725  0.74647259  0.76582276    -0.40300
H1471       H  0.71882377  0.77354218  0.72509674     0.12500
H1472       H  0.68884496  0.81944618  0.71452209     0.12100
H1473       H  0.66556324  0.85488573  0.75612160     0.11600
H1474       H  0.69584491  0.80985661  0.76653015     0.11800
H1475       H  0.64380266  0.88448606  0.73683724     0.14500
H1476       H  0.64890488  0.85024059  0.70805017     0.13300
H1477       H  0.74710224  0.75072436  0.74696192     0.11000
H1478       H  0.70192669  0.75426922  0.77158073     0.13000
C1479       C  0.74325799  0.78298705  0.51266409     0.19100
C1480       C  0.75319162  0.75309754  0.51941612    -0.19000
C1481       C  0.75941961  0.72381546  0.51168523    -0.11300
C1482       C  0.75556568  0.72382932  0.49697375     0.21300
C1483       C  0.74554438  0.75367774  0.49024775    -0.20600
C1484       C  0.73931001  0.78288154  0.49796004    -0.11500
C1485       C  0.76335152  0.69437095  0.48802073    -0.15600
C1486       C  0.76962282  0.66272697  0.49274996    -0.29500
C1487       C  0.73558969  0.81283028  0.52144982    -0.03700
C1488       C  0.73075635  0.84446145  0.51635864    -0.40300
H1489       H  0.75625253  0.75241939  0.53074717     0.12500
H1490       H  0.76766701  0.70167424  0.51729214     0.12100
H1491       H  0.74243859  0.75442660  0.47891805     0.11600
H1492       H  0.73089872  0.80487310  0.49230979     0.11800
H1493       H  0.76477633  0.69952152  0.47676818     0.14500
H1494       H  0.76776625  0.65617007  0.50382944     0.13300
H1495       H  0.73311084  0.80819989  0.53269807     0.11000
H1496       H  0.73391198  0.85033785  0.50528194     0.13000
C1497       C  0.69709330  0.46374787  0.49902732     0.19100
C1498       C  0.66614131  0.46867234  0.50194034    -0.19000
C1499       C  0.65052865  0.44629550  0.51094472    -0.11300
C1500       C  0.66542880  0.41797014  0.51689142     0.21300
C1501       C  0.69633484  0.41289076  0.51388178    -0.20600
C1502       C  0.71217677  0.43583816  0.50521135    -0.11500
C1503       C  0.64798094  0.39107241  0.52443399    -0.15600
C1504       C  0.62466386  0.39797850  0.53314872    -0.29500
C1505       C  0.71294030  0.48688608  0.48897564    -0.03700
C1506       C  0.74139552  0.49798121  0.49140121    -0.40300
H1507       H  0.65400236  0.48976427  0.49717150     0.12500
H1508       H  0.62644597  0.45023758  0.51270364     0.12100
H1509       H  0.70808149  0.39082979  0.51806861     0.11600
H1510       H  0.73591563  0.43103344  0.50290311     0.11800
H1511       H  0.65286592  0.36484494  0.52171766     0.14500
H1512       H  0.62074437  0.42406101  0.53638062     0.13300
H1513       H  0.70065926  0.49580855  0.47972369     0.11000
H1514       H  0.75253419  0.49100632  0.50123687     0.13000
C1515       C  0.64403328  0.59676018  0.43781371     0.19100
C1516       C  0.63538566  0.62943701  0.43316771    -0.19000
C1517       C  0.60471485  0.63903427  0.43313840    -0.11300
C1518       C  0.58199219  0.61620980  0.43775990     0.21300
C1519       C  0.59045240  0.58292897  0.44143621    -0.20600
C1520       C  0.62111450  0.57333583  0.44148203    -0.11500
C1521       C  0.54961769  0.62663400  0.43946005    -0.15600
C1522       C  0.54173737  0.65875235  0.44260011    -0.29500
C1523       C  0.67647524  0.58625409  0.43933547    -0.03700
C1524       C  0.69981656  0.60836178  0.44071821    -0.40300
H1525       H  0.65210990  0.64777989  0.42959587     0.12500
H1526       H  0.59894905  0.66441441  0.42957469     0.12100
H1527       H  0.57340914  0.56466941  0.44482407     0.11600
H1528       H  0.62701723  0.54781782  0.44486952     0.11800
H1529       H  0.53225119  0.60688923  0.43957330     0.14500
H1530       H  0.55924974  0.67815351  0.44347494     0.13300
H1531       H  0.68100399  0.55920996  0.44046205     0.11000
H1532       H  0.69575793  0.63553355  0.44026882     0.13000
C1533       C  0.85903690  0.59027044  0.39350261     0.19100
C1534       C  0.89065235  0.59390586  0.39191688    -0.19000
C1535       C  0.90378994  0.59494709  0.37848989    -0.11300
C1536       C  0.88539014  0.59351760  0.36638636     0.21300
C1537       C  0.85373072  0.59041498  0.36795140    -0.20600
C1538       C  0.84066571  0.58822667  0.38139573    -0.11500
C1539       C  0.89880815  0.59719630  0.35211789    -0.15600
C1540       C  0.92343938  0.57944300  0.34815903    -0.29500
C1541       C  0.84558085  0.59156089  0.40781910    -0.03700
C1542       C  0.82220208  0.57166293  0.41198670    -0.40300
H1543       H  0.90518834  0.59601883  0.40110096     0.12500
H1544       H  0.92822379  0.59798528  0.37754905     0.12100
H1545       H  0.83913049  0.58965423  0.35875277     0.11600
H1546       H  0.81615928  0.58619696  0.38233006     0.11800
H1547       H  0.88751185  0.61381951  0.34456696     0.14500
H1548       H  0.93298465  0.56058257  0.35532105     0.13300
H1549       H  0.85607443  0.60867727  0.41536005     0.11000
H1550       H  0.81333864  0.55229610  0.40497020     0.13000
C1551       C  0.08188776  0.42455316  0.24265152     0.19100
C1552       C  0.08370751  0.43013019  0.25722259    -0.19000
C1553       C  0.06502578  0.45393209  0.26378518    -0.11300
C1554       C  0.04384048  0.47305611  0.25592334     0.21300
C1555       C  0.04145564  0.46697745  0.24137464    -0.20600
C1556       C  0.06029000  0.44310041  0.23477073    -0.11500
C1557       C  0.02276136  0.49787876  0.26267443    -0.15600
C1558       C  0.02757258  0.51138136  0.27552809    -0.29500
C1559       C  0.10359220  0.39977158  0.23636081    -0.03700
C1560       C  0.11047174  0.39773767  0.22253820    -0.40300
H1561       H  0.09988184  0.41608269  0.26361328     0.12500
H1562       H  0.06699104  0.45655667  0.27507390     0.12100
H1563       H  0.02496895  0.48081247  0.23508048     0.11600
H1564       H  0.05760789  0.43920036  0.22357593     0.11800
H1565       H  0.00219542  0.50471339  0.25694828     0.14500
H1566       H  0.04835154  0.50576631  0.28125738     0.13300
H1567       H  0.11691410  0.38466835  0.24375424     0.11000
H1568       H  0.09867406  0.41348582  0.21486946     0.13000
C1569       C  0.16331461  0.65078234  0.32539833     0.19100
C1570       C  0.13895788  0.67227596  0.32196849    -0.19000
C1571       C  0.10903650  0.66010303  0.32206743    -0.11300
C1572       C  0.10269355  0.62610396  0.32588167     0.21300
C1573       C  0.12701293  0.60497084  0.32985520    -0.20600
C1574       C  0.15699639  0.61715442  0.32970154    -0.11500
C1575       C  0.07163509  0.61103511  0.32461817    -0.15600
C1576       C  0.04601020  0.62965245  0.32364977    -0.29500
C1577       C  0.19486251  0.66397437  0.32365341    -0.03700
C1578       C  0.21848566  0.64386756  0.32033864    -0.40300
H1579       H  0.14319455  0.69825442  0.31860657     0.12500
H1580       H  0.09130448  0.67717192  0.31855397     0.12100
H1581       H  0.12284955  0.57872603  0.33284863     0.11600
H1582       H  0.17510271  0.60007396  0.33282099     0.11800
H1583       H  0.07002117  0.58352180  0.32377796     0.14500
H1584       H  0.04688570  0.65704287  0.32484854     0.13300
H1585       H  0.19807165  0.69140630  0.32356172     0.11000
H1586       H  0.21520382  0.61657583  0.31951606     0.13000
C1587       C  0.14268768  0.17128010  0.20658931     0.19100
C1588       C  0.15922189  0.14078781  0.20644935    -0.19000
C1589       C  0.14422665  0.10944803  0.20726585    -0.11300
C1590       C  0.11230558  0.10812407  0.20804105     0.21300
C1591       C  0.09574692  0.13858554  0.20790565    -0.20600
C1592       C  0.11075217  0.16992271  0.20728183    -0.11500
C1593       C  0.09546094  0.07549898  0.20827629    -0.15600
C1594       C  0.10643113  0.04674660  0.21413222    -0.29500
C1595       C  0.15942288  0.20391642  0.20546779    -0.03700
C1596       C  0.14930892  0.23318698  0.21101595    -0.40300
H1597       H  0.18383674  0.14123805  0.20573128     0.12500
H1598       H  0.15758592  0.08638296  0.20693512     0.12100
H1599       H  0.07109615  0.13811366  0.20828738     0.11600
H1600       H  0.09728129  0.19291522  0.20699687     0.11800
H1601       H  0.07241824  0.07566872  0.20407344     0.14500
H1602       H  0.12840261  0.04672310  0.21938846     0.13300
H1603       H  0.18183790  0.20332317  0.20063006     0.11000
H1604       H  0.12817461  0.23371071  0.21692411     0.13000
C1605       C  0.02305121  0.78828531  0.24705123     0.19100
C1606       C  0.02962544  0.75478017  0.24312112    -0.19000
C1607       C  0.02037039  0.72736299  0.25152903    -0.11300
C1608       C  0.00394886  0.73300658  0.26400768     0.21300
C1609       C  0.99770537  0.76653794  0.26800754    -0.20600
C1610       C  0.00693296  0.79391371  0.25960700    -0.11500
C1611       C  0.99266773  0.70500950  0.27316559    -0.15600
C1612       C  0.98991000  0.67244314  0.26907127    -0.29500
C1613       C  0.03263282  0.81644233  0.23757515    -0.03700
C1614       C  0.03556179  0.84889658  0.24175082    -0.40300
H1615       H  0.04209293  0.74978950  0.23351643     0.12500
H1616       H  0.02640084  0.70203784  0.24821488     0.12100
H1617       H  0.98506816  0.77159225  0.27755943     0.11600
H1618       H  0.00065849  0.81921367  0.26286731     0.11800
H1619       H  0.98478879  0.71199884  0.28360143     0.14500
H1620       H  0.99658814  0.66467806  0.25859298     0.13300
H1621       H  0.03860886  0.80988336  0.22682279     0.11000
H1622       H  0.03156628  0.85585872  0.25262340     0.13000
C1623       C  0.21848598  0.80336900  0.25463683     0.19100
C1624       C  0.21740630  0.80621716  0.23985954    -0.19000
C1625       C  0.19947406  0.83115940  0.23323683    -0.11300
C1626       C  0.18235187  0.85407920  0.24131426     0.21300
C1627       C  0.18408047  0.85169132  0.25607627    -0.20600
C1628       C  0.20182872  0.82675811  0.26266738    -0.11500
C1629       C  0.16140589  0.88001621  0.23510618    -0.15600
C1630       C  0.15084281  0.88016035  0.22171981    -0.29500
C1631       C  0.23868752  0.77726226  0.26126943    -0.03700
C1632       C  0.23625630  0.76653342  0.27478475    -0.40300
H1633       H  0.23044627  0.78897734  0.23339814     0.12500
H1634       H  0.19930181  0.83236514  0.22185974     0.12100
H1635       H  0.17134724  0.86907823  0.26260634     0.11600
H1636       H  0.20278457  0.82648021  0.27404606     0.11800
H1637       H  0.15130154  0.89761985  0.24252339     0.14500
H1638       H  0.15931616  0.86206208  0.21412451     0.13300
H1639       H  0.25672584  0.76694021  0.25476988     0.11000
H1640       H  0.21787249  0.77558586  0.28136144     0.13000
C1641       C  0.13422649  0.08808321  0.04081738     0.19100
C1642       C  0.15091811  0.11786950  0.03810958    -0.19000
C1643       C  0.13671680  0.14946011  0.03836037    -0.11300
C1644       C  0.10560983  0.15167920  0.04152875     0.21300
C1645       C  0.08883314  0.12190066  0.04414761    -0.20600
C1646       C  0.10296076  0.09019970  0.04367707    -0.11500
C1647       C  0.09056644  0.18478998  0.04308150    -0.15600
C1648       C  0.09797631  0.21218222  0.03528473    -0.29500
C1649       C  0.15087631  0.05580563  0.04190098    -0.03700
C1650       C  0.13874398  0.02507956  0.03925934    -0.40300
H1651       H  0.17515501  0.11671040  0.03605180     0.12500
H1652       H  0.15032030  0.17211239  0.03662898     0.12100
H1653       H  0.06485362  0.12324648  0.04673550     0.11600
H1654       H  0.08973602  0.06766106  0.04613284     0.11800
H1655       H  0.07156659  0.18619636  0.05039106     0.14500
H1656       H  0.11467190  0.21045974  0.02689407     0.13300
H1657       H  0.17495143  0.05764205  0.04454161     0.11000
H1658       H  0.11570575  0.02242178  0.03524328     0.13000
C1659       C  0.24376460  0.77846722  0.00914348     0.19100
C1660       C  0.23853706  0.74558057  0.01447921    -0.19000
C1661       C  0.24320227  0.71717611  0.00606754    -0.11300
C1662       C  0.25350281  0.72123885  0.99216315     0.21300
C1663       C  0.25849417  0.75408325  0.98677413    -0.20600
C1664       C  0.25393873  0.78250147  0.99519944    -0.11500
C1665       C  0.25996032  0.69198086  0.98302030    -0.15600
C1666       C  0.26915848  0.66159792  0.98801069    -0.29500
C1667       C  0.23778869  0.80759073  0.01847045    -0.03700
C1668       C  0.23230601  0.83943152  0.01384285    -0.40300
H1669       H  0.23045953  0.74185167  0.02516452     0.12500
H1670       H  0.23841678  0.69223777  0.01043353     0.12100
H1671       H  0.26657933  0.75773225  0.97608681     0.11600
H1672       H  0.25886692  0.80732305  0.99078220     0.11800
H1673       H  0.26032145  0.69681097  0.97172760     0.14500
H1674       H  0.27106401  0.65696149  0.99926134     0.13300
H1675       H  0.23504413  0.80176551  0.02961524     0.11000
H1676       H  0.23320777  0.84577720  0.00271592     0.13000
C1677       C  0.12134439  0.93940030  0.14265000     0.19100
C1678       C  0.13985526  0.91364764  0.13718172    -0.19000
C1679       C  0.15380176  0.91740333  0.12404750    -0.11300
C1680       C  0.14943059  0.94706769  0.11590449     0.21300
C1681       C  0.13181501  0.97339520  0.12151984    -0.20600
C1682       C  0.11779008  0.96965183  0.13471340    -0.11500
C1683       C  0.16326126  0.95106992  0.10164237    -0.15600
C1684       C  0.16841884  0.92409158  0.09335116    -0.29500
C1685       C  0.10667214  0.93325015  0.15663599    -0.03700
C1686       C  0.08649176  0.95422041  0.16274922    -0.40300
H1687       H  0.14352102  0.89032709  0.14309211     0.12500
H1688       H  0.16825984  0.89707048  0.12039493     0.12100
H1689       H  0.12848284  0.99671785  0.11557663     0.11600
H1690       H  0.10433961  0.99059662  0.13851527     0.11800
H1691       H  0.16836122  0.97650746  0.09775958     0.14500
H1692       H  0.16154795  0.89895859  0.09695197     0.13300
H1693       H  0.11268156  0.90987271  0.16215492     0.11000
H1694       H  0.07979843  0.97775800  0.15763268     0.13000
C1695       C  0.07683242  0.83245265  0.01684572     0.19100
C1696       C  0.06380451  0.84148086  0.00382211    -0.19000
C1697       C  0.04497077  0.81894759  0.99656688    -0.11300
C1698       C  0.03865888  0.78644629  0.00210488     0.21300
C1699       C  0.05076546  0.77765357  0.01536487    -0.20600
C1700       C  0.06985830  0.80027582  0.02264926    -0.11500
C1701       C  0.01858024  0.76199555  0.99450949    -0.15600
C1702       C  0.01497007  0.76250566  0.98037561    -0.29500
C1703       C  0.09899530  0.85681831  0.02316889    -0.03700
C1704       C  0.11484239  0.85233912  0.03526565    -0.40300
H1705       H  0.06851914  0.86609519  0.99909138     0.12500
H1706       H  0.03514882  0.82736760  0.98668938     0.12100
H1707       H  0.04587381  0.75295908  0.01998208     0.11600
H1708       H  0.07933074  0.79214499  0.03262815     0.11800
H1709       H  0.00649886  0.74301268  0.00074910     0.14500
H1710       H  0.02814919  0.78017095  0.97398286     0.13300
H1711       H  0.10423556  0.87905709  0.01674022     0.11000
H1712       H  0.11045637  0.83067991  0.04209800     0.13000
C1713       C  0.13309262  0.59561738  0.54648477     0.19100
C1714       C  0.10136644  0.59709828  0.54468130    -0.19000
C1715       C  0.08642810  0.62847757  0.54471652    -0.11300
C1716       C  0.10297633  0.65884024  0.54620898     0.21300
C1717       C  0.13468061  0.65735911  0.54796529    -0.20600
C1718       C  0.14952064  0.62597037  0.54826274    -0.11500
C1719       C  0.08647619  0.69154690  0.54671585    -0.15600
C1720       C  0.09732311  0.72048460  0.54093161    -0.29500
C1721       C  0.14961131  0.56288411  0.54727862    -0.03700
C1722       C  0.14164362  0.53510420  0.53990261    -0.40300
H1723       H  0.08801778  0.57406101  0.54364205     0.12500
H1724       H  0.06189435  0.62908591  0.54354833     0.12100
H1725       H  0.14786983  0.68035432  0.54949177     0.11600
H1726       H  0.17394431  0.62537098  0.54985547     0.11800
H1727       H  0.06381536  0.69137486  0.55131833     0.14500
H1728       H  0.11848247  0.72034595  0.53502273     0.13300
H1729       H  0.17040812  0.56237025  0.55350602     0.11000
H1730       H  0.12255217  0.53601242  0.53262821     0.13000
C1731       C  0.16205779  0.93803266  0.51801530     0.19100
C1732       C  0.15353049  0.96819407  0.51107491    -0.19000
C1733       C  0.17432805  0.98593135  0.50263733    -0.11300
C1734       C  0.20430718  0.97413365  0.50122055     0.21300
C1735       C  0.21309154  0.94444577  0.50846156    -0.20600
C1736       C  0.19208434  0.92629455  0.51667899    -0.11500
C1737       C  0.22727128  0.99316972  0.49286592    -0.15600
C1738       C  0.22050635  0.01086041  0.48106881    -0.29500
C1739       C  0.13890667  0.91957456  0.52647045    -0.03700
C1740       C  0.13721419  0.88540655  0.52713906    -0.40300
H1741       H  0.13054484  0.97782109  0.51203862     0.12500
H1742       H  0.16710458  0.00921189  0.49748841     0.12100
H1743       H  0.23621872  0.93515936  0.50766505     0.11600
H1744       H  0.19944421  0.90346439  0.52212932     0.11800
H1745       H  0.25092349  0.99107584  0.49615164     0.14500
H1746       H  0.19751042  0.01057559  0.47684782     0.13300
H1747       H  0.12026999  0.93449519  0.53070522     0.11000
H1748       H  0.15396266  0.87002356  0.52172267     0.13000
C1749       C  0.91899980  0.67249856  0.48815910     0.19100
C1750       C  0.92959217  0.66865604  0.50203464    -0.19000
C1751       C  0.94799545  0.69335532  0.50820208    -0.11300
C1752       C  0.95621161  0.72288054  0.50067137     0.21300
C1753       C  0.94655573  0.72641059  0.48662643    -0.20600
C1754       C  0.92788480  0.70162987  0.48042618    -0.11500
C1755       C  0.97618766  0.74912678  0.50710400    -0.15600
C1756       C  0.97651421  0.75485742  0.52108297    -0.29500
C1757       C  0.89705383  0.64659346  0.48287884    -0.03700
C1758       C  0.88492548  0.64562672  0.46982130    -0.40300
H1759       H  0.92333333  0.64648483  0.50824357     0.12500
H1760       H  0.95606074  0.68893948  0.51883307     0.12100
H1761       H  0.95302502  0.74868363  0.48053013     0.11600
H1762       H  0.92016753  0.70586284  0.46974783     0.11800
H1763       H  0.99165633  0.76311133  0.50024277     0.14500
H1764       H  0.96017882  0.74195169  0.52785603     0.13300
H1765       H  0.88871896  0.62844997  0.49068002     0.11000
H1766       H  0.89233882  0.66325192  0.46168242     0.13000
C1767       C  0.90603023  0.86156442  0.57488219     0.19100
C1768       C  0.88092146  0.84028536  0.57228441    -0.19000
C1769       C  0.85126731  0.85322974  0.57226176    -0.11300
C1770       C  0.84604405  0.88789014  0.57497570     0.21300
C1771       C  0.87097622  0.90864151  0.57842326    -0.20600
C1772       C  0.90058089  0.89568459  0.57849605    -0.11500
C1773       C  0.81584222  0.90430456  0.57285663    -0.15600
C1774       C  0.78928816  0.88734649  0.57158638    -0.29500
C1775       C  0.93722548  0.84766247  0.57269289    -0.03700
C1776       C  0.96225083  0.86719344  0.57094369    -0.40300
H1777       H  0.88433654  0.81385167  0.56958534     0.12500
H1778       H  0.83290318  0.83628187  0.56939109     0.12100
H1779       H  0.86763975  0.93533725  0.58067427     0.11600
H1780       H  0.91894604  0.91285571  0.58110402     0.11800
H1781       H  0.81577840  0.93179670  0.57160860     0.14500
H1782       H  0.78827372  0.86009426  0.57331818     0.13300
H1783       H  0.93915063  0.82042087  0.57107290     0.11000
H1784       H  0.96102944  0.89454193  0.57204009     0.13000
C1785       C  0.13044676  0.65151120  0.70736026     0.19100
C1786       C  0.09895689  0.65021967  0.70974653    -0.19000
C1787       C  0.08417313  0.61886742  0.71075539    -0.11300
C1788       C  0.10070781  0.58851370  0.70966319     0.21300
C1789       C  0.13226696  0.58987939  0.70743498    -0.20600
C1790       C  0.14693883  0.62122530  0.70615706    -0.11500
C1791       C  0.08390259  0.55609662  0.70950235    -0.15600
C1792       C  0.09579165  0.52598169  0.71342178    -0.29500
C1793       C  0.14664260  0.68402123  0.70562527    -0.03700
C1794       C  0.14062068  0.71125365  0.71357064    -0.40300
H1795       H  0.08570587  0.67333732  0.71042662     0.12500
H1796       H  0.05971960  0.61827865  0.71224612     0.12100
H1797       H  0.14543725  0.56689681  0.70614719     0.11600
H1798       H  0.17122979  0.62186922  0.70420326     0.11800
H1799       H  0.06023628  0.55721706  0.70612761     0.14500
H1800       H  0.11831572  0.52425914  0.71809290     0.13300
H1801       H  0.16606888  0.68449214  0.69853759     0.11000
H1802       H  0.12315470  0.71002388  0.72165498     0.13000
C1803       C  0.10912911  0.80292095  0.61271929     0.19100
C1804       C  0.09552313  0.79406943  0.62559300    -0.19000
C1805       C  0.11279900  0.79279173  0.63797074    -0.11300
C1806       C  0.14424008  0.79958081  0.63765210     0.21300
C1807       C  0.15813400  0.80704978  0.62468500    -0.20600
C1808       C  0.14069567  0.80911318  0.61233154    -0.11500
C1809       C  0.16272689  0.79918445  0.65076731    -0.15600
C1810       C  0.15218154  0.81284690  0.66273604    -0.29500
C1811       C  0.08993702  0.80469173  0.59984881    -0.03700
C1812       C  0.09444563  0.82802398  0.58961855    -0.40300
H1813       H  0.07134246  0.78873355  0.62610950     0.12500
H1814       H  0.10161133  0.78622246  0.64778341     0.12100
H1815       H  0.18237744  0.81201096  0.62417432     0.11600
H1816       H  0.15195120  0.81512265  0.60247747     0.11800
H1817       H  0.18602586  0.79004360  0.65031213     0.14500
H1818       H  0.13001272  0.82505847  0.66270437     0.13300
H1819       H  0.07044884  0.78767844  0.59920479     0.11000
H1820       H  0.11257282  0.84667932  0.59072653     0.13000
C1821       C  0.07819373  0.89882379  0.74526885     0.19100
C1822       C  0.06823279  0.92909775  0.73870813    -0.19000
C1823       C  0.05257676  0.95369035  0.74638303    -0.11300
C1824       C  0.04628399  0.94853442  0.76077490     0.21300
C1825       C  0.05609866  0.91833402  0.76727145    -0.20600
C1826       C  0.07177629  0.89379122  0.75961953    -0.11500
C1827       C  0.02939598  0.97355578  0.76941750    -0.15600
C1828       C  0.01163723  0.99822388  0.76398305    -0.29500
C1829       C  0.09769215  0.87332663  0.73810521    -0.03700
C1830       C  0.10699727  0.87565416  0.72461730    -0.40300
H1831       H  0.07291706  0.93463672  0.72777265     0.12500
H1832       H  0.04613167  0.97688909  0.74100082     0.12100
H1833       H  0.05160670  0.91365393  0.77833982     0.11600
H1834       H  0.07937637  0.87097339  0.76502560     0.11800
H1835       H  0.02944668  0.96955740  0.78076527     0.14500
H1836       H  0.00942926  0.00151994  0.75268297     0.13300
H1837       H  0.10748545  0.85350330  0.74474147     0.11000
H1838       H  0.09850845  0.89537893  0.71765279     0.13000
C1839       C  0.32960058  0.64489915  0.75701094     0.19100
C1840       C  0.32350583  0.67799942  0.76178132    -0.19000
C1841       C  0.30549433  0.70027839  0.75370722    -0.11300
C1842       C  0.29307192  0.68992882  0.74068960     0.21300
C1843       C  0.29914413  0.65685158  0.73604651    -0.20600
C1844       C  0.31708355  0.63470622  0.74407802    -0.11500
C1845       C  0.27389856  0.71240585  0.73152370    -0.15600
C1846       C  0.26098570  0.74153686  0.73584661    -0.29500
C1847       C  0.35129127  0.62129501  0.76418569    -0.03700
C1848       C  0.36360249  0.62540549  0.77714374    -0.40300
H1849       H  0.33330849  0.68727731  0.77147328     0.12500
H1850       H  0.30213955  0.72572127  0.75761679     0.12100
H1851       H  0.29006162  0.64807031  0.72609751     0.11600
H1852       H  0.32163014  0.60954362  0.74001046     0.11800
H1853       H  0.26872744  0.70350555  0.72097504     0.14500
H1854       H  0.26440803  0.75024922  0.74652674     0.13300
H1855       H  0.35905671  0.60004954  0.75788022     0.11000
H1856       H  0.35599905  0.64567988  0.78396421     0.13000
C1857       C  0.33897689  0.84552904  0.68346220     0.19100
C1858       C  0.36363063  0.82737567  0.68912945    -0.19000
C1859       C  0.39270805  0.84176240  0.68948793    -0.11300
C1860       C  0.39783395  0.87466354  0.68403510     0.21300
C1861       C  0.37348367  0.89234817  0.67789421    -0.20600
C1862       C  0.34440436  0.87786372  0.67744743    -0.11500
C1863       C  0.42756455  0.89218959  0.68566931    -0.15600
C1864       C  0.45398890  0.87532306  0.68690850    -0.29500
C1865       C  0.30798501  0.83061802  0.68494974    -0.03700
C1866       C  0.28221679  0.84888408  0.68386272    -0.40300
H1867       H  0.36016912  0.80247126  0.69383604     0.12500
H1868       H  0.41068945  0.82761337  0.69464163     0.12100
H1869       H  0.37689785  0.91766932  0.67359198     0.11600
H1870       H  0.32640762  0.89242777  0.67255132     0.11800
H1871       H  0.42755977  0.91980723  0.68613368     0.14500
H1872       H  0.45449326  0.84790331  0.68566169     0.13300
H1873       H  0.30645989  0.80429890  0.68848527     0.11000
H1874       H  0.28290993  0.87550207  0.68085871     0.13000
C1875       C  0.39552027  0.34805791  0.95167938     0.19100
C1876       C  0.38501994  0.36319684  0.93920181    -0.19000
C1877       C  0.37401716  0.39638545  0.93920828    -0.11300
C1878       C  0.37365485  0.41542704  0.95165169     0.21300
C1879       C  0.38472784  0.40050958  0.96417283    -0.20600
C1880       C  0.39565013  0.36712193  0.96416747    -0.11500
C1881       C  0.35945368  0.44956275  0.95108227    -0.15600
C1882       C  0.35984942  0.47251077  0.96155546    -0.29500
C1883       C  0.40770389  0.31308354  0.95101096    -0.03700
C1884       C  0.40866016  0.29163396  0.96209910    -0.40300
H1885       H  0.38502730  0.34914924  0.92942574     0.12500
H1886       H  0.36550674  0.40714356  0.92942962     0.12100
H1887       H  0.38457667  0.41404005  0.97403331     0.11600
H1888       H  0.40448725  0.35655205  0.97389845     0.11800
H1889       H  0.34669523  0.45546591  0.94155300     0.14500
H1890       H  0.37269421  0.46805115  0.97114524     0.13300
H1891       H  0.41627733  0.30473385  0.94087603     0.11000
H1892       H  0.39925091  0.29901602  0.97218730     0.13000
C1893       C  0.55516938  0.28485100  0.99754660     0.19100
C1894       C  0.55891299  0.28520082  0.01228198    -0.19000
C1895       C  0.57876733  0.30839986  0.01875339    -0.11300
C1896       C  0.59534298  0.33202643  0.01058406     0.21300
C1897       C  0.59140512  0.33177902  0.99588409    -0.20600
C1898       C  0.57164938  0.30866479  0.98943613    -0.11500
C1899       C  0.61738095  0.35709267  0.01658797    -0.15600
C1900       C  0.62675396  0.35859659  0.03015751    -0.29500
C1901       C  0.53274650  0.26056365  0.99124025    -0.03700
C1902       C  0.52935513  0.25490674  0.97727919    -0.40300
H1903       H  0.54631520  0.26747358  0.01884903     0.12500
H1904       H  0.58079234  0.30769151  0.03009591     0.12100
H1905       H  0.60373008  0.34967609  0.98927932     0.11600
H1906       H  0.56919025  0.31020346  0.97813459     0.11800
H1907       H  0.62794801  0.37432202  0.00902991     0.14500
H1908       H  0.61756321  0.34136154  0.03803877     0.13300
H1909       H  0.51757948  0.24744135  0.99850502     0.11000
H1910       H  0.54408095  0.26730517  0.96968309     0.13000
C1911       C  0.58701949  0.13543566  0.92753315     0.19100
C1912       C  0.61184825  0.15556032  0.92324509    -0.19000
C1913       C  0.64147763  0.14254530  0.92349183    -0.11300
C1914       C  0.64694691  0.10909259  0.92821687     0.21300
C1915       C  0.62199846  0.08839848  0.93176478    -0.20600
C1916       C  0.59238699  0.10140423  0.93154366    -0.11500
C1917       C  0.67822793  0.09541935  0.93028217    -0.15600
C1918       C  0.70224529  0.11531937  0.93347829    -0.29500
C1919       C  0.55677418  0.15189512  0.92932281    -0.03700
C1920       C  0.53036881  0.13463484  0.93069242    -0.40300
H1921       H  0.60840634  0.18179893  0.92006627     0.12500
H1922       H  0.66001269  0.15893757  0.92020984     0.12100
H1923       H  0.62555564  0.06251432  0.93538529     0.11600
H1924       H  0.57414947  0.08513232  0.93523011     0.11800
H1925       H  0.68091736  0.06795171  0.93061428     0.14500
H1926       H  0.69945226  0.14269291  0.93404356     0.13300
H1927       H  0.55662952  0.17938494  0.93047674     0.11000
H1928       H  0.52968346  0.10737344  0.92905219     0.13000
C1929       C  0.29600445  0.04542370  0.00903391     0.19100
C1930       C  0.30747775  0.07741008  0.01286812    -0.09400
C1931       C  0.32600814  0.09617021  0.00363281    -0.11300
C1932       C  0.33363013  0.08322449  0.99029360     0.21300
C1933       C  0.32218317  0.05122146  0.98647778    -0.20600
C1934       C  0.30363884  0.03251615  0.99568850    -0.11500
C1935       C  0.35595194  0.10033832  0.98074591    -0.15600
C1936       C  0.36408403  0.13334605  0.98164838    -0.29500
C1937       C  0.27705151  0.02583883  0.01934488    -0.03700
C1938       C  0.25721898  0.00154573  0.01541138    -0.40300
H1939       H  0.30230139  0.08781967  0.02311951     0.12500
H1940       H  0.33510297  0.12014850  0.00724703     0.12100
H1941       H  0.32814617  0.04027908  0.97641334     0.11600
H1942       H  0.29622915  0.00753281  0.99243029     0.11800
H1943       H  0.36749007  0.08437469  0.97314203     0.14500
H1944       H  0.35254150  0.15001226  0.98894368     0.13300
H1945       H  0.27849483  0.03263693  0.03040170     0.11000
H1946       H  0.25410428  0.99614682  0.00431015     0.13000
C1947       C  0.34838773  0.33801127  0.79879694     0.19100
C1948       C  0.35633135  0.35610836  0.81090648    -0.19000
C1949       C  0.36826169  0.38889285  0.80979013    -0.11300
C1950       C  0.37211852  0.40445289  0.79655132     0.21300
C1951       C  0.36354604  0.38665801  0.78438760    -0.20600
C1952       C  0.35165875  0.35376684  0.78550794    -0.11500
C1953       C  0.38804521  0.43758416  0.79597912    -0.15600
C1954       C  0.38987128  0.45821172  0.78459711    -0.29500
C1955       C  0.33529201  0.30352508  0.80047175    -0.03700
C1956       C  0.33629727  0.28001992  0.79030000    -0.40300
H1957       H  0.35368483  0.34466364  0.82125363     0.12500
H1958       H  0.37491445  0.40199019  0.81932157     0.12100
H1959       H  0.36662509  0.39753844  0.77399201     0.11600
H1960       H  0.34480052  0.34101494  0.77595546     0.11800
H1961       H  0.40023444  0.44472398  0.80549837     0.14500
H1962       H  0.37654321  0.45356101  0.77517626     0.13300
H1963       H  0.32410488  0.29749768  0.81039297     0.11000
H1964       H  0.34834135  0.28515638  0.78053424     0.13000
C1965       C  0.24101171  0.96458863  0.74207513     0.19100
C1966       C  0.23646622  0.99739283  0.73656030    -0.19000
C1967       C  0.24064011  0.02595159  0.74500180    -0.11300
C1968       C  0.24987858  0.02212583  0.75911744     0.21300
C1969       C  0.25471126  0.98935851  0.76457484    -0.20600
C1970       C  0.25062171  0.96084838  0.75613590    -0.11500
C1971       C  0.25530390  0.05141419  0.76848358    -0.15600
C1972       C  0.26280542  0.08259347  0.76373916    -0.29500
C1973       C  0.23445057  0.93505641  0.73297136    -0.03700
C1974       C  0.22662632  0.90427152  0.73809638    -0.40300
H1975       H  0.22896932  0.00090893  0.72576414     0.12500
H1976       H  0.23606243  0.05074482  0.74048958     0.12100
H1977       H  0.26211372  0.98580697  0.77538172     0.11600
H1978       H  0.25527379  0.93610496  0.76067007     0.11800
H1979       H  0.25603392  0.04623826  0.77974844     0.14500
H1980       H  0.26402901  0.08795074  0.75252607     0.13300
H1981       H  0.23300997  0.93976470  0.72168756     0.11000
H1982       H  0.22607577  0.89948896  0.74935909     0.13000
C1983       C  0.38363692  0.18961792  0.88957149     0.19100
C1984       C  0.39685957  0.19178350  0.87612296    -0.19000
C1985       C  0.37882208  0.19057525  0.86392725    -0.11300
C1986       C  0.34693447  0.18780665  0.86487526     0.21300
C1987       C  0.33358647  0.18661610  0.87831945    -0.20600
C1988       C  0.35169495  0.18713967  0.89053663    -0.11500
C1989       C  0.32721576  0.18698262  0.85201894    -0.15600
C1990       C  0.33568691  0.17096484  0.84014273    -0.29500
C1991       C  0.40375868  0.19114121  0.90229273    -0.03700
C1992       C  0.39717187  0.17535859  0.91458920    -0.40300
H1993       H  0.42131523  0.19414946  0.87504311     0.12500
H1994       H  0.38984758  0.19244553  0.85375544     0.12100
H1995       H  0.30908081  0.18491653  0.87936709     0.11600
H1996       H  0.34059077  0.18631393  0.90070590     0.11800
H1997       H  0.30461775  0.19803614  0.85261751     0.14500
H1998       H  0.35721656  0.15744729  0.84001709     0.13300
H1999       H  0.42562445  0.20387511  0.90120418     0.11000
H2000       H  0.37649129  0.16028713  0.91542370     0.13000
C2001       C  0.15387569  0.33743565  0.74622066     0.19100
C2002       C  0.16935447  0.34962749  0.75811330    -0.19000
C2003       C  0.18687667  0.32782225  0.76652106    -0.11300
C2004       C  0.18933567  0.29314171  0.76332169     0.21300
C2005       C  0.17371903  0.28077542  0.75140151    -0.20600
C2006       C  0.15626952  0.30269717  0.74293191    -0.11500
C2007       C  0.20830609  0.27108162  0.77272972    -0.15600
C2008       C  0.21950245  0.24069834  0.76888557    -0.29500
C2009       C  0.13291125  0.36090778  0.73857218    -0.03700
C2010       C  0.12231817  0.35599516  0.72537942    -0.40300
H2011       H  0.16758610  0.37613943  0.76102429     0.12500
H2012       H  0.19851002  0.33813661  0.77561785     0.12100
H2013       H  0.17413705  0.25411317  0.74872944     0.11600
H2014       H  0.14380463  0.29203203  0.73416708     0.11800
H2015       H  0.21536701  0.28151233  0.78279926     0.14500
H2016       H  0.21456653  0.23075704  0.75850561     0.13300
H2017       H  0.12483804  0.38274166  0.74442578     0.11000
H2018       H  0.13084988  0.33517120  0.71909055     0.13000
C2019       C  0.08836538  0.09930889  0.82007018     0.19100
C2020       C  0.11373505  0.07941484  0.81655395    -0.19000
C2021       C  0.14313489  0.09334901  0.81656838    -0.11300
C2022       C  0.14789384  0.12761256  0.82020895     0.21300
C2023       C  0.12273819  0.14710017  0.82427989    -0.20600
C2024       C  0.09339526  0.13310000  0.82439642    -0.11500
C2025       C  0.17805917  0.14466070  0.81856612    -0.15600
C2026       C  0.20481903  0.12800942  0.81899569    -0.29500
C2027       C  0.05722216  0.08443905  0.81827062    -0.03700
C2028       C  0.03179627  0.10341568  0.81711769    -0.40300
H2029       H  0.11069063  0.05333457  0.81322507     0.12500
H2030       H  0.16178343  0.07761955  0.81306852     0.12100
H2031       H  0.12574439  0.17348714  0.82718203     0.11600
H2032       H  0.07486994  0.14917553  0.82770594     0.11800
H2033       H  0.17806908  0.17187457  0.81649074     0.14500
H2034       H  0.20527388  0.10113083  0.82165191     0.13300
H2035       H  0.05553931  0.05723365  0.81648105     0.11000
H2036       H  0.03304679  0.13078403  0.81816587     0.13000
C2037       C  0.40666485  0.06730196  0.76656230     0.19100
C2038       C  0.41549904  0.03383078  0.76983803    -0.19000
C2039       C  0.43299586  0.01484362  0.76039173    -0.11300
C2040       C  0.44188491  0.02888277  0.74733116     0.21300
C2041       C  0.43303294  0.06230810  0.74406023    -0.20600
C2042       C  0.41575156  0.08135405  0.75353179    -0.11500
C2043       C  0.45963311  0.00942582  0.73669072    -0.15600
C2044       C  0.47837798  0.98351584  0.74001007    -0.29500
C2045       C  0.38511754  0.08515411  0.77614142    -0.03700
C2046       C  0.38024690  0.11903404  0.77586598    -0.40300
H2047       H  0.40833202  0.02207448  0.77964941     0.12500
H2048       H  0.43865909  0.98890453  0.76319538     0.12100
H2049       H  0.43930620  0.07369080  0.73404440     0.11600
H2050       H  0.40862263  0.10652671  0.75030348     0.11800
H2051       H  0.45907748  0.01851007  0.72584886     0.14500
H2052       H  0.48125099  0.97592857  0.75094598     0.13300
H2053       H  0.37109129  0.06929344  0.78297163     0.11000
H2054       H  0.39437645  0.13541021  0.76933474     0.13000
C2055       C  0.65251562  0.66323739  0.20750495     0.19100
C2056       C  0.65393789  0.63973249  0.19647376    -0.19000
C2057       C  0.64234989  0.60680198  0.19816685    -0.11300
C2058       C  0.62896739  0.59661426  0.21099527     0.21300
C2059       C  0.62834371  0.61972948  0.22216376    -0.20600
C2060       C  0.63993659  0.65266985  0.22047860    -0.11500
C2061       C  0.61489164  0.56247485  0.21300588    -0.15600
C2062       C  0.60248465  0.54512785  0.20228531    -0.29500
C2063       C  0.66604127  0.69763337  0.20528307    -0.03700
C2064       C  0.66099155  0.72425915  0.21379179    -0.40300
H2065       H  0.66409852  0.64686898  0.18648115     0.12500
H2066       H  0.64422694  0.58937757  0.18945049     0.12100
H2067       H  0.61850303  0.61239923  0.23220280     0.11600
H2068       H  0.63937716  0.66931606  0.22947223     0.11800
H2069       H  0.61170200  0.55310866  0.22371211     0.14500
H2070       H  0.60312795  0.55574688  0.19169832     0.13300
H2071       H  0.68150174  0.70087074  0.19643847     0.11000
H2072       H  0.64541125  0.72201906  0.22259104     0.13000
C2073       C  0.58637893  0.93435115  0.23480358     0.19100
C2074       C  0.57936021  0.96836582  0.23155584    -0.19000
C2075       C  0.56174838  0.98798097  0.24069801    -0.11300
C2076       C  0.55069262  0.97397220  0.25339711     0.21300
C2077       C  0.55772211  0.93999880  0.25666067    -0.20600
C2078       C  0.57527568  0.92036639  0.24751248    -0.11500
C2079       C  0.53236110  0.99388622  0.26365193    -0.15600
C2080       C  0.51633746  0.02190325  0.26018183    -0.29500
C2081       C  0.60812075  0.91592223  0.22551975    -0.03700
C2082       C  0.61381084  0.88226295  0.22634364    -0.40300
H2083       H  0.58809620  0.98008547  0.22201306     0.12500
H2084       H  0.55765345  0.01428478  0.23791693     0.12100
H2085       H  0.54977374  0.92861112  0.26641805     0.11600
H2086       H  0.58083424  0.89473322  0.25075902     0.11800
H2087       H  0.53029252  0.98368582  0.27428605     0.14500
H2088       H  0.51625051  0.03121970  0.24939782     0.13300
H2089       H  0.62208712  0.93146886  0.21854054     0.11000
H2090       H  0.60041160  0.86600276  0.23322369     0.13000
C2091       C  0.80493753  0.73203994  0.25324209     0.19100
C2092       C  0.79978146  0.71973167  0.26699819    -0.19000
C2093       C  0.81917251  0.69539647  0.27312769    -0.11300
C2094       C  0.84428923  0.68289539  0.26558968     0.21300
C2095       C  0.84969126  0.69563772  0.25196771    -0.20600
C2096       C  0.83060064  0.72008170  0.24592392    -0.11500
C2097       C  0.86571515  0.65684066  0.27129547    -0.15600
C2098       C  0.86996889  0.64966123  0.28508497    -0.29500
C2099       C  0.78278892  0.75651876  0.24678224    -0.03700
C2100       C  0.78061049  0.76197629  0.23276528    -0.40300
H2101       H  0.78032300  0.72850315  0.27293790     0.12500
H2102       H  0.81402587  0.68605494  0.28360095     0.12100
H2103       H  0.86907195  0.68686016  0.24596930     0.11600
H2104       H  0.83640735  0.72952080  0.23555335     0.11800
H2105       H  0.88092426  0.64519190  0.26371181     0.14500
H2106       H  0.85666790  0.66249690  0.29304948     0.13300
H2107       H  0.76625950  0.76842300  0.25366933     0.11000
H2108       H  0.79561376  0.74872350  0.22562688     0.13000
C2109       C  0.90917607  0.90265795  0.18593604     0.19100
C2110       C  0.88406251  0.92475799  0.18620385    -0.19000
C2111       C  0.85422014  0.91218289  0.18545366    -0.11300
C2112       C  0.84877282  0.87697951  0.18436476     0.21300
C2113       C  0.87386076  0.85506375  0.18356561    -0.20600
C2114       C  0.90362374  0.86758572  0.18431893    -0.11500
C2115       C  0.81784054  0.86143557  0.18541452    -0.15600
C2116       C  0.79141701  0.87879697  0.18513705    -0.29500
C2117       C  0.94029920  0.91718457  0.18821192    -0.03700
C2118       C  0.96618073  0.89874758  0.18863468    -0.40300
H2119       H  0.88749320  0.95186689  0.18743074     0.12500
H2120       H  0.83574049  0.93013134  0.18629028     0.12100
H2121       H  0.87043524  0.82785245  0.18275073     0.11600
H2122       H  0.92184427  0.84928393  0.18398398     0.11800
H2123       H  0.81696078  0.83414813  0.18728875     0.14500
H2124       H  0.79116453  0.90588476  0.18295556     0.13300
H2125       H  0.94176648  0.94427600  0.19029041     0.11000
H2126       H  0.96583754  0.87171433  0.18664378     0.13000
C2127       C  0.64481503  0.59353843  0.04019870     0.19100
C2128       C  0.66136451  0.62385032  0.03854931    -0.19000
C2129       C  0.64718108  0.65520409  0.04010042    -0.11300
C2130       C  0.61613078  0.65673479  0.04347694     0.21300
C2131       C  0.59952584  0.62640920  0.04517515    -0.20600
C2132       C  0.61368814  0.59493913  0.04344686    -0.11500
C2133       C  0.60071738  0.68950440  0.04576321    -0.15600
C2134       C  0.60874516  0.71832893  0.03901504    -0.29500
C2135       C  0.66175771  0.56132096  0.04002097    -0.03700
C2136       C  0.64999942  0.53082308  0.03659432    -0.40300
H2137       H  0.68553336  0.62324154  0.03628834     0.12500
H2138       H  0.66078689  0.67807854  0.03910066     0.12100
H2139       H  0.57559948  0.62710678  0.04791697     0.11600
H2140       H  0.60061394  0.57190859  0.04516985     0.11800
H2141       H  0.58060699  0.68935143  0.05243743     0.14500
H2142       H  0.62680807  0.71832454  0.03121777     0.13300
H2143       H  0.68581197  0.56307829  0.04269064     0.11000
H2144       H  0.62686999  0.52832167  0.03267981     0.13000
C2145       C  0.51117335  0.97469962  0.01066719     0.19100
C2146       C  0.50682503  0.97254519  0.99601949    -0.19000
C2147       C  0.50157498  0.00182795  0.98799467    -0.11300
C2148       C  0.50014376  0.03392219  0.99434253     0.21300
C2149       C  0.50470894  0.03615469  0.00899302    -0.20600
C2150       C  0.51004860  0.00679943  0.01702998    -0.11500
C2151       C  0.49230873  0.06359748  0.98524182    -0.15600
C2152       C  0.48585521  0.09506844  0.98990399    -0.29500
C2153       C  0.51668326  0.94427158  0.01969733    -0.03700
C2154       C  0.52645325  0.91421730  0.01474190    -0.40300
H2155       H  0.50671284  0.94838981  0.99067408     0.12500
H2156       H  0.49793779  0.99923500  0.97675731     0.12100
H2157       H  0.50408402  0.06020783  0.01439110     0.11600
H2158       H  0.51336423  0.00920344  0.02829468     0.11800
H2159       H  0.48962593  0.05848222  0.97406709     0.14500
H2160       H  0.48775644  0.10135178  0.00095858     0.13300
H2161       H  0.51447707  0.94743050  0.03101704     0.11000
H2162       H  0.53089077  0.91091304  0.00361155     0.13000
C2163       C  0.63349781  0.84109198  0.14144627     0.19100
C2164       C  0.60315490  0.83207743  0.13865045    -0.19000
C2165       C  0.59245268  0.83019003  0.12474007    -0.11300
C2166       C  0.61174269  0.83823255  0.11335357     0.21300
C2167       C  0.64194253  0.84785967  0.11619502    -0.20600
C2168       C  0.65285993  0.84881048  0.13007054    -0.11500
C2169       C  0.60044448  0.83911132  0.09853882    -0.15600
C2170       C  0.57926401  0.81740999  0.09353225    -0.29500
C2171       C  0.64434796  0.84370147  0.15626574    -0.03700
C2172       C  0.67132446  0.83083713  0.16034204    -0.40300
H2173       H  0.58775364  0.82635659  0.14725226     0.12500
H2174       H  0.56884803  0.82351075  0.12293931     0.12100
H2175       H  0.65713930  0.85463973  0.10763921     0.11600
H2176       H  0.67621916  0.85646553  0.13193867     0.11800
H2177       H  0.61054784  0.85774381  0.09142513     0.14500
H2178       H  0.57069355  0.79712878  0.10028315     0.13300
H2179       H  0.62939485  0.85501601  0.16402783     0.11000
H2180       H  0.68487938  0.81698129  0.15273465     0.13000
C2181       C  0.70050089  0.97398980  0.00415761     0.19100
C2182       C  0.71030092  0.95371960  0.01554951    -0.19000
C2183       C  0.68926119  0.93614141  0.02397164    -0.11300
C2184       C  0.65792858  0.93913578  0.02131090     0.21300
C2185       C  0.64807249  0.96013371  0.01018968    -0.20600
C2186       C  0.66909516  0.97719515  0.00161358    -0.11500
C2187       C  0.63481107  0.92054796  0.02975869    -0.15600
C2188       C  0.63860490  0.88824510  0.03419557    -0.29500
C2189       C  0.72359550  0.99250607  0.99558585    -0.03700
C2190       C  0.71938846  0.00205007  0.98203205    -0.40300
H2191       H  0.73435424  0.95123438  0.01785608     0.12500
H2192       H  0.69745975  0.92057863  0.03263161     0.12100
H2193       H  0.62398838  0.96295534  0.00800505     0.11600
H2194       H  0.66063975  0.99334368  0.99320798     0.11800
H2195       H  0.61226134  0.93180389  0.03041669     0.14500
H2196       H  0.65983901  0.87514093  0.03209260     0.13300
H2197       H  0.74551215  0.99728184  0.00053221     0.11000
H2198       H  0.69844381  0.99556990  0.97658270     0.13000
C2199       C  0.42815239  0.65520392  0.98958195     0.19100
C2200       C  0.43086265  0.69035590  0.98679563    -0.19000
C2201       C  0.44984933  0.71086927  0.99509558    -0.11300
C2202       C  0.46658882  0.69674957  0.00637842     0.21300
C2203       C  0.46431624  0.66162548  0.00891765    -0.20600
C2204       C  0.44544448  0.64117576  0.00063612    -0.11500
C2205       C  0.48544799  0.71761269  0.01618891    -0.15600
C2206       C  0.49558923  0.74929825  0.01331462    -0.29500
C2207       C  0.40553759  0.63277378  0.98237818    -0.03700
C2208       C  0.38850653  0.64167293  0.97108384    -0.40300
H2209       H  0.41760669  0.70255536  0.97861759     0.12500
H2210       H  0.45034079  0.73788893  0.99292152     0.12100
H2211       H  0.47684958  0.64997185  0.01751323     0.11600
H2212       H  0.44376813  0.61429373  0.00313679     0.11800
H2213       H  0.49219901  0.70576261  0.02608737     0.14500
H2214       H  0.49092907  0.76101321  0.00316921     0.13300
H2215       H  0.40121867  0.60821340  0.98733783     0.11000
H2216       H  0.39223299  0.66577097  0.96573378     0.13000
C2217       C  0.34491327  0.87801520  0.06944949     0.19100
C2218       C  0.35789647  0.84710479  0.07374420    -0.19000
C2219       C  0.38953128  0.84323092  0.07417809    -0.11300
C2220       C  0.40891908  0.87009500  0.06998231     0.21300
C2221       C  0.39594427  0.90142043  0.06624920    -0.20600
C2222       C  0.36433636  0.90534965  0.06588419    -0.11500
C2223       C  0.44245442  0.86587488  0.06854415    -0.15600
C2224       C  0.45518026  0.83549447  0.06602747    -0.29500
C2225       C  0.31131318  0.88015037  0.06765554    -0.03700
C2226       C  0.29626028  0.90981481  0.06796781    -0.40300
H2227       H  0.34349716  0.82573053  0.07659838     0.12500
H2228       H  0.39856509  0.81902373  0.07765300     0.12100
H2229       H  0.41027911  0.92251828  0.06299371     0.11600
H2230       H  0.35536012  0.92936464  0.06215121     0.11800
H2231       H  0.45658139  0.88859199  0.06808085     0.14500
H2232       H  0.44100203  0.81290751  0.06554004     0.13300
H2233       H  0.29884739  0.85680236  0.06556734     0.11000
H2234       H  0.30832509  0.93299617  0.07067905     0.13000
C2235       C  0.89894020  0.42080448  0.29926570     0.19100
C2236       C  0.91383536  0.39023630  0.29618479    -0.19000
C2237       C  0.89759628  0.35965139  0.29567894    -0.11300
C2238       C  0.86621629  0.35910726  0.29852825     0.21300
C2239       C  0.85145291  0.38957587  0.30189599    -0.20600
C2240       C  0.86757252  0.42025799  0.30212729    -0.11500
C2241       C  0.84853360  0.32702810  0.29867050    -0.15600
C2242       C  0.85422403  0.30109070  0.28990392    -0.29500
C2243       C  0.91697234  0.45255730  0.30004913    -0.03700
C2244       C  0.90592785  0.48308472  0.29616131    -0.40300
H2245       H  0.93808811  0.39006905  0.29412366     0.12500
H2246       H  0.90973573  0.33640642  0.29341077     0.12100
H2247       H  0.82734998  0.38962632  0.30430229     0.11600
H2248       H  0.85565586  0.44332893  0.30488810     0.11800
H2249       H  0.82896409  0.32557327  0.30565185     0.14500
H2250       H  0.87200684  0.30335661  0.28201307     0.13300
H2251       H  0.94076342  0.45039498  0.30310229     0.11000
H2252       H  0.88311096  0.48519290  0.29181785     0.13000
C2253       C  0.74506823  0.98626328  0.24225428     0.19100
C2254       C  0.75796992  0.01482516  0.23559447    -0.19000
C2255       C  0.76467397  0.04418224  0.24321470    -0.11300
C2256       C  0.75817704  0.04572303  0.25771462     0.21300
C2257       C  0.74509218  0.01717349  0.26433907    -0.20600
C2258       C  0.73847702  0.98780423  0.25672318    -0.11500
C2259       C  0.76586910  0.07561050  0.26654505    -0.15600
C2260       C  0.77542117  0.10600279  0.26155204    -0.29500
C2261       C  0.73715879  0.95632118  0.23355363    -0.03700
C2262       C  0.73221216  0.92480863  0.23876849    -0.40300
H2263       H  0.76306621  0.01435709  0.22442847     0.12500
H2264       H  0.77525828  0.06514441  0.23766392     0.12100
H2265       H  0.73984188  0.01760619  0.27548816     0.11600
H2266       H  0.72765712  0.96679833  0.26217961     0.11800
H2267       H  0.76438755  0.07191388  0.27788664     0.14500
H2268       H  0.77691950  0.11100029  0.25033842     0.13300
H2269       H  0.73500006  0.96068643  0.22227197     0.11000
H2270       H  0.73523934  0.91939904  0.24990433     0.13000
C2271       C  0.70680979  0.32010443  0.25972071     0.19100
C2272       C  0.70374253  0.35453174  0.26328829    -0.19000
C2273       C  0.68605854  0.37657528  0.25503102    -0.11300
C2274       C  0.67103086  0.36490143  0.24292132     0.21300
C2275       C  0.67414408  0.33042530  0.23926311    -0.20600
C2276       C  0.69175546  0.30829937  0.24756448    -0.11500
C2277       C  0.64958574  0.38830099  0.23544712    -0.15600
C2278       C  0.63891977  0.38336926  0.22226796    -0.29500
C2279       C  0.72540124  0.29755125  0.26910944    -0.03700
C2280       C  0.73669212  0.26722988  0.26517860    -0.40300
H2281       H  0.71490685  0.36441381  0.27258710     0.12500
H2282       H  0.68373088  0.40282500  0.25825200     0.12100
H2283       H  0.66204467  0.31999587  0.23035171     0.11600
H2284       H  0.69263155  0.28183432  0.24459677     0.11800
H2285       H  0.64062792  0.40936978  0.24151465     0.14500
H2286       H  0.64794494  0.36291551  0.21591033     0.13300
H2287       H  0.73172082  0.30736178  0.27938494     0.11000
H2288       H  0.73255547  0.25786792  0.25463727     0.13000
C2289       C  0.59892806  0.12576683  0.31437090     0.19100
C2290       C  0.62483906  0.10523490  0.31289989    -0.19000
C2291       C  0.65412957  0.11925709  0.31343087    -0.11300
C2292       C  0.65830379  0.15438069  0.31549796     0.21300
C2293       C  0.63248074  0.17483122  0.31732011    -0.20600
C2294       C  0.60314837  0.16080191  0.31681180    -0.11500
C2295       C  0.68875119  0.17101776  0.31428704    -0.15600
C2296       C  0.71535840  0.15437600  0.31580207    -0.29500
C2297       C  0.56836105  0.10985641  0.31215061    -0.03700
C2298       C  0.54152792  0.12573135  0.31409398    -0.40300
H2299       H  0.62241930  0.07828041  0.31088881     0.12500
H2300       H  0.67323789  0.10262532  0.31155661     0.12100
H2301       H  0.63498100  0.20199648  0.31877688     0.11600
H2302       H  0.58411355  0.17791513  0.31783069     0.11800
H2303       H  0.68917462  0.19782214  0.31141848     0.14500
H2304       H  0.71552723  0.12798422  0.31920141     0.13300
H2305       H  0.56803154  0.08402516  0.30816300     0.11000
H2306       H  0.54079325  0.15126141  0.31826500     0.13000
C2307       C  0.95173734  0.04684700  0.24706438     0.19100
C2308       C  0.94359577  0.08030910  0.24357524    -0.19000
C2309       C  0.92628572  0.09977961  0.25283970    -0.11300
C2310       C  0.91644519  0.08599044  0.26579682     0.21300
C2311       C  0.92412413  0.05224458  0.26915864    -0.20600
C2312       C  0.94173487  0.03287636  0.25994247    -0.11500
C2313       C  0.89534640  0.10466568  0.27520716    -0.15600
C2314       C  0.89239218  0.13877117  0.27509504    -0.29500
C2315       C  0.97048587  0.02727840  0.23698757    -0.03700
C2316       C  0.99102844  0.00407719  0.24121400    -0.40300
H2317       H  0.95073464  0.09147456  0.23364280     0.12500
H2318       H  0.91984203  0.12514587  0.24954935     0.12100
H2319       H  0.91619320  0.04072086  0.27888889     0.11600
H2320       H  0.94690008  0.00680504  0.26278031     0.11800
H2321       H  0.88007633  0.08944535  0.28170327     0.14500
H2322       H  0.90782947  0.15443204  0.26890650     0.13300
H2323       H  0.96940502  0.03444203  0.22591624     0.11000
H2324       H  0.99403674  0.99877747  0.25237233     0.13000
C2325       C  0.89503028  0.35222654  0.45614052     0.19100
C2326       C  0.86310510  0.35273541  0.45533597    -0.19000
C2327       C  0.84746767  0.38357372  0.45561952    -0.11300
C2328       C  0.86327650  0.41448582  0.45685957     0.21300
C2329       C  0.89524757  0.41405630  0.45758430    -0.20600
C2330       C  0.91094417  0.38315318  0.45712179    -0.11500
C2331       C  0.84545820  0.44644140  0.45679063    -0.15600
C2332       C  0.85478640  0.47575707  0.46269287    -0.29500
C2333       C  0.91233376  0.31999561  0.45535484    -0.03700
C2334       C  0.90153108  0.29011586  0.46028808    -0.40300
H2335       H  0.85018844  0.32945391  0.45414563     0.12500
H2336       H  0.82284931  0.38327780  0.45486373     0.12100
H2337       H  0.90820107  0.43744618  0.45816870     0.11600
H2338       H  0.93559442  0.38337260  0.45755726     0.11800
H2339       H  0.82261939  0.44503114  0.45239349     0.14500
H2340       H  0.87664563  0.47727779  0.46800194     0.13300
H2341       H  0.93536192  0.32125040  0.45119595     0.11000
H2342       H  0.87965266  0.28897292  0.46558118     0.13000
C2343       C  0.98001571  0.03156481  0.49217753     0.19100
C2344       C  0.98601999  0.00036102  0.48568348    -0.19000
C2345       C  0.99384366  0.97172883  0.49368103    -0.11300
C2346       C  0.99558337  0.97366379  0.50846283     0.21300
C2347       C  0.98864213  0.00469905  0.51496397    -0.20600
C2348       C  0.98090587  0.03335781  0.50694737    -0.11500
C2349       C  0.00550976  0.94477197  0.51756781    -0.15600
C2350       C  0.01484935  0.91420858  0.51288661    -0.29500
C2351       C  0.97179342  0.06104001  0.48313449    -0.03700
C2352       C  0.97396562  0.09386079  0.48705782    -0.40300
H2353       H  0.98501501  0.99820696  0.47431402     0.12500
H2354       H  0.99862388  0.94850886  0.48812611     0.12100
H2355       H  0.98947470  0.00691304  0.52633226     0.11600
H2356       H  0.97536603  0.05660200  0.51237980     0.11800
H2357       H  0.00656883  0.94966972  0.52881851     0.14500
H2358       H  0.01444106  0.90810819  0.50178210     0.13300
H2359       H  0.96393696  0.05521809  0.47255191     0.11000
H2360       H  0.98244605  0.10059771  0.49741237     0.13000
C2361       C  0.85712494  0.21534122  0.36180690     0.19100
C2362       C  0.84390811  0.21076954  0.37512039    -0.19000
C2363       C  0.86203969  0.21058569  0.38725391    -0.11300
C2364       C  0.89365631  0.21592841  0.38630878     0.21300
C2365       C  0.90668847  0.22211905  0.37305108    -0.20600
C2366       C  0.88865793  0.22134818  0.36086461    -0.11500
C2367       C  0.91322415  0.21476749  0.39906960    -0.15600
C2368       C  0.90968035  0.19010547  0.40880624    -0.29500
C2369       C  0.83767716  0.21364813  0.34903341    -0.03700
C2370       C  0.84628356  0.19602671  0.33764570    -0.40300
H2371       H  0.81963548  0.20644324  0.37609092     0.12500
H2372       H  0.85134380  0.20641488  0.39739714     0.12100
H2373       H  0.93094126  0.22661829  0.37210106     0.11600
H2374       H  0.89929225  0.22560895  0.35071336     0.11800
H2375       H  0.93175128  0.23296995  0.40004712     0.14500
H2376       H  0.89278609  0.17032256  0.40702808     0.13300
H2377       H  0.81511096  0.22485154  0.34939258     0.11000
H2378       H  0.86782084  0.18247779  0.33787092     0.13000
C2379       C  0.08525433  0.31503712  0.51907277     0.19100
C2380       C  0.09416448  0.28946096  0.50970308    -0.19000
C2381       C  0.07265206  0.27288290  0.50129777    -0.11300
C2382       C  0.04164127  0.28120396  0.50228767     0.21300
C2383       C  0.03259301  0.30596107  0.51200897    -0.20600
C2384       C  0.05419210  0.32300035  0.52023605    -0.11500
C2385       C  0.01808654  0.26353477  0.49380013    -0.15600
C2386       C  0.02309753  0.25153290  0.48073735    -0.29500
C2387       C  0.10907855  0.33303943  0.52727971    -0.03700
C2388       C  0.10750928  0.36635100  0.53038528    -0.40300
H2389       H  0.11794871  0.28268213  0.50871334     0.12500
H2390       H  0.08028450  0.25320714  0.49422319     0.12100
H2391       H  0.00875932  0.31240194  0.51311885     0.11600
H2392       H  0.04654118  0.34207415  0.52758561     0.11800
H2393       H  0.99534395  0.26175016  0.49824979     0.14500
H2394       H  0.04501704  0.25544313  0.47569535     0.13300
H2395       H  0.13036903  0.31966443  0.52913209     0.11000
H2396       H  0.08769575  0.38102917  0.52723444     0.13000
C2397       C  0.09341243  0.14930768  0.42771130     0.19100
C2398       C  0.11755921  0.17048976  0.43183020    -0.19000
C2399       C  0.14750839  0.15851024  0.43200340    -0.11300
C2400       C  0.15406358  0.12504151  0.42781717     0.21300
C2401       C  0.13001969  0.10437148  0.42309403    -0.20600
C2402       C  0.10003347  0.11633783  0.42297671    -0.11500
C2403       C  0.18484578  0.10964695  0.42946524    -0.15600
C2404       C  0.21069172  0.12746521  0.43169420    -0.29500
C2405       C  0.06175785  0.16218131  0.42913685    -0.03700
C2406       C  0.03748889  0.14182611  0.43143208    -0.40300
H2407       H  0.11309713  0.19601845  0.43549874     0.12500
H2408       H  0.16504956  0.17520029  0.43598918     0.12100
H2409       H  0.13436591  0.07854422  0.41976608     0.11600
H2410       H  0.08216352  0.09957418  0.41932210     0.11800
H2411       H  0.18596856  0.08202665  0.42944003     0.14500
H2412       H  0.21060369  0.15503215  0.43130570     0.13300
H2413       H  0.05886797  0.18956233  0.42985961     0.11000
H2414       H  0.04017338  0.11439615  0.43158882     0.13000
C2415       C  0.79653497  0.04230927  0.50166772     0.19100
C2416       C  0.80126221  0.04258133  0.48705794    -0.19000
C2417       C  0.81861754  0.06832681  0.48066759    -0.11300
C2418       C  0.83114550  0.09476856  0.48880041     0.21300
C2419       C  0.82553669  0.09493423  0.50335644    -0.20600
C2420       C  0.80838649  0.06915786  0.50972348    -0.11500
C2421       C  0.85241174  0.12084409  0.48299310    -0.15600
C2422       C  0.85910659  0.12511101  0.46923060    -0.29500
C2423       C  0.77756612  0.01505826  0.50813718    -0.03700
C2424       C  0.78060715  0.00530167  0.52169160    -0.40300
H2425       H  0.79194690  0.02245779  0.48060420     0.12500
H2426       H  0.82258799  0.06673648  0.46947075     0.12100
H2427       H  0.83478646  0.11494445  0.50989666     0.11600
H2428       H  0.80414876  0.07065910  0.52092646     0.11800
H2429       H  0.86524903  0.13541122  0.49068515     0.14500
H2430       H  0.84698420  0.11112198  0.46118591     0.13300
H2431       H  0.75970506  0.00387269  0.50171338     0.11000
H2432       H  0.79879223  0.01583595  0.52808607     0.13000
loop_ 
_geom_bond_atom_site_label_1 
_geom_bond_atom_site_label_2 
_geom_bond_distance 
_geom_bond_site_symmetry_2 
_ccdc_geom_bond_type 
Fe1          O17   2.080       .  S
Fe1           O7   2.074       .  S
Fe1          O14   2.070   1_655  S
Fe1           O6   2.070   1_655  S
Fe1          O12   1.974       .  S
Fe2           O5   2.062       .  S
Fe2           O9   2.059       .  S
Fe2          O13   2.066       .  S
Fe2          O18   2.063       .  S
Fe2          O12   1.966       .  S
Fe3          O21   2.064       .  S
Fe3           O8   2.070       .  S
Fe3          O15   2.066       .  S
Fe3           O4   2.066       .  S
Fe3          O12   1.969       .  S
O4           C11   1.267       .  A
O5           C19   1.265       .  A
O6           C11   1.267   1_455  A
O7           C10   1.274       .  A
O8           C20   1.272       .  A
O9           C22   1.267       .  A
C10          O15   1.272       .  A
C10        C2334   1.475       .  S
C11        C2386   1.479   1_655  S
O13          C16   1.268   1_655  A
O14          C16   1.270       .  A
C16        C2406   1.480       .  S
O17          C22   1.271       .  A
O18          C20   1.272       .  A
C19          O21   1.268       .  A
C19        C2422   1.477       .  S
C20        C2352   1.477       .  S
C22        C2368   1.477       .  S
Fe23         O39   2.104       .  S
Fe23         O29   2.050       .  S
Fe23         O36   2.061       .  S
Fe23         O28   2.092       .  S
Fe23         O34   1.959       .  S
Fe24         O27   2.078       .  S
Fe24         O31   2.052       .  S
Fe24         O35   2.085       .  S
Fe24         O40   2.045       .  S
Fe24         O34   1.956       .  S
Fe25         O43   2.056       .  S
Fe25         O30   2.093       .  S
Fe25         O37   2.085       .  S
Fe25         O26   2.057       .  S
Fe25         O34   1.949       .  S
O26          C33   1.266       .  A
O27          C41   1.269       .  A
O28          C33   1.274       .  A
O29          C32   1.270       .  A
O30          C42   1.276       .  A
O31          C44   1.268       .  A
C32          O37   1.274       .  A
C32        C2242   1.474       .  S
C33        C2280   1.482       .  S
O35          C38   1.270       .  A
O36          C38   1.268       .  A
C38        C2296   1.481       .  S
O39          C44   1.277       .  A
O40          C42   1.271       .  A
C41          O43   1.264       .  A
C41        C2314   1.477       .  S
C42        C2260   1.476       .  S
C44        C2370   1.478       .  S
Fe45         O61   2.037       .  S
Fe45         O51   2.096       .  S
Fe45         O58   2.093       .  S
Fe45         O50   2.040       .  S
Fe45         O56   1.957       .  S
Fe46         O49   2.053       .  S
Fe46         O53   2.097       .  S
Fe46         O57   2.068       .  S
Fe46         O62   2.091       .  S
Fe46         O56   1.962       .  S
Fe47         O65   2.077       .  S
Fe47         O52   2.056       .  S
Fe47         O59   2.060       .  S
Fe47         O48   2.074       .  S
Fe47         O56   1.955       .  S
O48          C55   1.268       .  A
O49          C63   1.268       .  A
O50          C55   1.266       .  A
O51          C54   1.276       .  A
O52          C64   1.267       .  A
O53          C66   1.275       .  A
C54          O59   1.269       .  A
C54        C2206   1.483       .  S
C55        C2134   1.466       .  S
O57          C60   1.271       .  A
O58          C60   1.274       .  A
C60        C2170   1.486       .  S
O61          C66   1.264       .  A
O62          C64   1.275       .  A
C63          O65   1.270       .  A
C63        C2154   1.473       .  S
C64        C2188   1.473       .  S
C66        C2224   1.474       .  S
Fe67         O83   2.056       .  S
Fe67         O73   2.059       .  S
Fe67         O80   2.075       .  S
Fe67         O72   2.068       .  S
Fe67         O78   1.969       .  S
Fe68         O71   2.052       .  S
Fe68         O75   2.085       .  S
Fe68         O79   2.078       .  S
Fe68         O84   2.074       .  S
Fe68         O78   1.975       .  S
Fe69         O87   2.078       .  S
Fe69         O74   2.062       .  S
Fe69         O81   2.075       .  S
Fe69         O70   2.074       .  S
Fe69         O78   1.973       .  S
O70          C77   1.274       .  A
O71          C85   1.270       .  A
O72          C77   1.275       .  A
O73          C76   1.264       .  A
O74          C86   1.267       .  A
O75          C88   1.272       .  A
C76          O81   1.267       .  A
C76        C2100   1.480       .  S
C77        C2064   1.475       .  S
O79          C82   1.270       .  A
O80          C82   1.268       .  A
C82        C2172   1.482       .  S
O83          C88   1.270       .  A
O84          C86   1.270       .  A
C85          O87   1.273       .  A
C85        C2262   1.476       .  S
C86        C2082   1.479       .  S
C88        C2116   1.482       .  S
Fe89        O105   2.112       .  S
Fe89         O95   2.055       .  S
Fe89        O102   2.064       .  S
Fe89         O94   2.098       .  S
Fe89        O100   1.962       .  S
Fe90         O93   2.087       .  S
Fe90         O97   2.060       .  S
Fe90        O101   2.085       .  S
Fe90        O106   2.049       .  S
Fe90        O100   1.955       .  S
Fe91        O109   2.060       .  S
Fe91         O96   2.074       .  S
Fe91        O103   2.070       .  S
Fe91         O92   2.052       .  S
Fe91        O100   1.953       .  S
O92          C99   1.265       .  A
O93         C107   1.272       .  A
O94          C99   1.275       .  A
O95          C98   1.271       .  A
O96         C108   1.271       .  A
O97         C110   1.270       .  A
C98         O103   1.271       .  A
C98        C1956   1.470       .  S
C99        C2008   1.480       .  S
O101        C104   1.271       .  A
O102        C104   1.269       .  A
C104       C2026   1.482       .  S
O105        C110   1.278       .  A
O106        C108   1.270       .  A
C107        O109   1.266       .  A
C107       C2046   1.482       .  S
C108       C1972   1.470       .  S
C110       C1990   1.487       .  S
Fe111       O127   2.104       .  S
Fe111       O117   2.051       .  S
Fe111       O124   2.055       .  S
Fe111       O116   2.087       .  S
Fe111       O122   1.966       .  S
Fe112       O115   2.078       .  S
Fe112       O119   2.064       .  S
Fe112       O123   2.083       .  S
Fe112       O128   2.050       .  S
Fe112       O122   1.965       .  S
Fe113       O131   2.062       .  S
Fe113       O118   2.084       .  S
Fe113       O125   2.077       .  S
Fe113       O114   2.059       .  S
Fe113       O122   1.969       .  S
O114        C121   1.268       .  A
O115        C129   1.271       .  A
O116        C121   1.272       .  A
O117        C120   1.271       .  A
O118        C130   1.273       .  A
O119        C132   1.269       .  A
C120        O125   1.272       .  A
C120       C1884   1.474       .  S
C121       C1902   1.484       .  S
O123        C126   1.270       .  A
O124        C126   1.267       .  A
C126       C1920   1.480       .  S
O127        C132   1.276       .  A
O128        C130   1.270       .  A
C129        O131   1.267       .  A
C129       C1936   1.481       .  S
C130       C2152   1.478       .  S
C132       C1992   1.488       .  S
Fe133       O149   2.051       .  S
Fe133       O139   2.091       .  S
Fe133       O146   2.101       .  S
Fe133       O138   2.045       .  S
Fe133       O144   1.965       .  S
Fe134       O137   2.051       .  S
Fe134       O141   2.077       .  S
Fe134       O145   2.048       .  S
Fe134       O150   2.064       .  S
Fe134       O144   1.957       .  S
Fe135       O153   2.073       .  S
Fe135       O140   2.054       .  S
Fe135       O147   2.053       .  S
Fe135       O136   2.076       .  S
Fe135       O144   1.960       .  S
O136        C143   1.273       .  A
O137        C151   1.271       .  A
O138        C143   1.271       .  A
O139        C142   1.272       .  A
O140        C152   1.266       .  A
O141        C154   1.270       .  A
C142        O147   1.264       .  A
C142       C1846   1.482       .  S
C143       C1794   1.467       .  S
O145        C148   1.265       .  A
O146        C148   1.274       .  A
C148       C1810   1.476       .  S
O149        C154   1.268       .  A
O150        C152   1.266       .  A
C151        O153   1.272       .  A
C151       C1974   1.470       .  S
C152       C1830   1.472       .  S
C154       C1866   1.473       .  S
Fe155       O171   2.058   1_455  S
Fe155       O161   2.064       .  S
Fe155       O168   2.083       .  S
Fe155       O160   2.055       .  S
Fe155       O166   1.975       .  S
Fe156       O159   2.050       .  S
Fe156       O163   2.069       .  S
Fe156       O167   2.062       .  S
Fe156       O172   2.064       .  S
Fe156       O166   1.975       .  S
Fe157       O175   2.085       .  S
Fe157       O162   2.062       .  S
Fe157       O169   2.066       .  S
Fe157       O158   2.076       .  S
Fe157       O166   1.975       .  S
O158        C165   1.271       .  A
O159        C173   1.270       .  A
O160        C165   1.269       .  A
O161        C164   1.268       .  A
O162        C174   1.265       .  A
O163        C176   1.266   1_455  A
C164        O169   1.269       .  A
C164       C1756   1.475   1_455  S
C165       C1720   1.474       .  S
O167        C170   1.269       .  A
O168        C170   1.274       .  A
C170       C1812   1.479       .  S
O171        C176   1.265       .  A
O172        C174   1.267       .  A
C173        O175   1.274       .  A
C173       C2350   1.477       .  S
C174       C1740   1.475       .  S
C176       C1776   1.478       .  S
Fe177       O193   2.046       .  S
Fe177       O183   2.087       .  S
Fe177       O190   2.090       .  S
Fe177       O182   2.038       .  S
Fe177       O188   1.983       .  S
Fe178       O181   2.043       .  S
Fe178       O185   2.080       .  S
Fe178       O189   2.053       .  S
Fe178       O194   2.086       .  S
Fe178       O188   1.979       .  S
Fe179       O197   2.064       .  S
Fe179       O184   2.051       .  S
Fe179       O191   2.055       .  S
Fe179       O180   2.068       .  S
Fe179       O188   1.978       .  S
O180        C187   1.267       .  A
O181        C195   1.267       .  A
O182        C187   1.266       .  A
O183        C186   1.273       .  A
O184        C196   1.267       .  A
O185        C198   1.270       .  A
C186        O191   1.266       .  A
C186       C1938   1.480   1_565  S
C187       C1650   1.466   1_565  S
O189        C192   1.267       .  A
O190        C192   1.274       .  A
C192       C1684   1.478       .  S
O193        C198   1.263       .  A
O194        C196   1.271       .  A
C195        O197   1.268       .  A
C195       C1668   1.470       .  S
C196       C1704   1.487       .  S
C198       C2226   1.475       .  S
Fe199       O215   2.064   1_455  S
Fe199       O205   2.064       .  S
Fe199       O212   2.069       .  S
Fe199       O204   2.061   1_565  S
Fe199       O210   1.983       .  S
Fe200       O203   2.067       .  S
Fe200       O207   2.071       .  S
Fe200       O211   2.072       .  S
Fe200       O216   2.072       .  S
Fe200       O210   1.978       .  S
Fe201       O219   2.060       .  S
Fe201       O206   2.057       .  S
Fe201       O213   2.058       .  S
Fe201       O202   2.071       .  S
Fe201       O210   1.975       .  S
O202        C209   1.272   1_565  A
O203        C217   1.274       .  A
O204        C209   1.272       .  A
O205        C208   1.267       .  A
O206        C218   1.266       .  A
O207        C220   1.268   1_455  A
C208        O213   1.263       .  A
C208       C2316   1.475   1_465  S
C209       C1594   1.474       .  S
O211        C214   1.272       .  A
O212        C214   1.269       .  A
C214       C1686   1.481       .  S
O215        C220   1.267       .  A
O216        C218   1.267       .  A
C217        O219   1.270       .  A
C217       C1614   1.471       .  S
C218       C1630   1.485       .  S
C220       C2118   1.481       .  S
Fe221       O237   2.070       .  S
Fe221       O227   2.082       .  S
Fe221       O234   2.072   1_655  S
Fe221       O226   2.058   1_655  S
Fe221       O232   1.964       .  S
Fe222       O225   2.064       .  S
Fe222       O229   2.075       .  S
Fe222       O233   2.062       .  S
Fe222       O238   2.077       .  S
Fe222       O232   1.965       .  S
Fe223       O241   2.076       .  S
Fe223       O228   2.058       .  S
Fe223       O235   2.063       .  S
Fe223       O224   2.082       .  S
Fe223       O232   1.969       .  S
O224        C231   1.267   1_655  A
O225        C239   1.264       .  A
O226        C231   1.263       .  A
O227        C230   1.278       .  A
O228        C240   1.272       .  A
O229        C242   1.271       .  A
C230        O235   1.274       .  A
C230       C2244   1.473       .  S
C231       C1558   1.481       .  S
O233        C236   1.268   1_655  A
O234        C236   1.271       .  A
C236       C1576   1.478       .  S
O237        C242   1.269       .  A
O238        C240   1.276       .  A
C239        O241   1.268       .  A
C239       C2098   1.484       .  S
C240       C1612   1.473       .  S
C242       C1540   1.479       .  S
Fe243       O259   2.083       .  S
Fe243       O249   2.067       .  S
Fe243       O256   2.066       .  S
Fe243       O248   2.078       .  S
Fe243       O254   1.977       .  S
Fe244       O247   2.067       .  S
Fe244       O251   2.061       .  S
Fe244       O255   2.070       .  S
Fe244       O260   2.058       .  S
Fe244       O254   1.973       .  S
Fe245       O263   2.058       .  S
Fe245       O250   2.074       .  S
Fe245       O257   2.073       .  S
Fe245       O246   2.060       .  S
Fe245       O254   1.975       .  S
O246        C253   1.264       .  A
O247        C261   1.265       .  A
O248        C253   1.269       .  A
O249        C252   1.274       .  A
O250        C262   1.274       .  A
O251        C264   1.269       .  A
C252        O257   1.273       .  A
C252       C2332   1.478       .  S
C253       C1506   1.479       .  S
O255        C258   1.268       .  A
O256        C258   1.268       .  A
C258       C1524   1.481       .  S
O259        C264   1.272       .  A
O260        C262   1.273       .  A
C261        O263   1.266       .  A
C261       C1758   1.482       .  S
C262       C1486   1.477       .  S
C264       C1542   1.481       .  S
Fe265       O281   2.064       .  S
Fe265       O271   2.077       .  S
Fe265       O278   2.082       .  S
Fe265       O270   2.058       .  S
Fe265       O276   1.985       .  S
Fe266       O269   2.066       .  S
Fe266       O273   2.058       .  S
Fe266       O277   2.062       .  S
Fe266       O282   2.058       .  S
Fe266       O276   1.977       .  S
Fe267       O285   2.067       .  S
Fe267       O272   2.062       .  S
Fe267       O279   2.062       .  S
Fe267       O268   2.074       .  S
Fe267       O276   1.974       .  S
O268        C275   1.273       .  A
O269        C283   1.273       .  A
O270        C275   1.272       .  A
O271        C274   1.269       .  A
O272        C284   1.267       .  A
O273        C286   1.265       .  A
C274        O279   1.264       .  A
C274       C2044   1.482       .  S
C275       C1416   1.471   1_565  S
O277        C280   1.269       .  A
O278        C280   1.271       .  A
C280       C1450   1.481       .  S
O281        C286   1.269       .  A
O282        C284   1.263       .  A
C283        O285   1.272       .  A
C283       C1432   1.475       .  S
C284       C1468   1.480       .  S
C286       C1864   1.473       .  S
Fe287       O303   2.056       .  S
Fe287       O293   2.059       .  S
Fe287       O300   2.073       .  S
Fe287       O292   2.063   1_565  S
Fe287       O298   1.972       .  S
Fe288       O291   2.052       .  S
Fe288       O295   2.080       .  S
Fe288       O299   2.072       .  S
Fe288       O304   2.073       .  S
Fe288       O298   1.977       .  S
Fe289       O307   2.077       .  S
Fe289       O294   2.058       .  S
Fe289       O301   2.061       .  S
Fe289       O290   2.071       .  S
Fe289       O298   1.974       .  S
O290        C297   1.272   1_565  A
O291        C305   1.270       .  A
O292        C297   1.273       .  A
O293        C296   1.264       .  A
O294        C306   1.265       .  A
O295        C308   1.270       .  A
C296        O301   1.266       .  A
C296       C2424   1.474   1_565  S
C297       C1378   1.474       .  S
O299        C302   1.270       .  A
O300        C302   1.269       .  A
C302       C1452   1.479       .  S
O303        C308   1.268       .  A
O304        C306   1.269       .  A
C305        O307   1.273       .  A
C305       C1488   1.475       .  S
C306       C1396   1.478       .  S
C308       C1774   1.480       .  S
Fe309       O325   2.061       .  S
Fe309       O315   2.039       .  S
Fe309       O322   2.044       .  S
Fe309       O314   2.065       .  S
Fe309       O320   1.971       .  S
Fe310       O313   2.087       .  S
Fe310       O317   2.085       .  S
Fe310       O321   2.086       .  S
Fe310       O326   2.060       .  S
Fe310       O320   1.976       .  S
Fe311       O329   2.053       .  S
Fe311       O316   2.068       .  S
Fe311       O323   2.075       .  S
Fe311       O312   2.066       .  S
Fe311       O320   1.980       .  S
O312        C319   1.267       .  A
O313        C327   1.272       .  A
O314        C319   1.267       .  A
O315        C318   1.266       .  A
O316        C328   1.271       .  A
O317        C330   1.274       .  A
C318        O323   1.270       .  A
C318       C1954   1.474       .  S
C319       C1342   1.477       .  S
O321        C324   1.272       .  A
O322        C324   1.262       .  A
C324       C1360   1.475       .  S
O325        C330   1.268       .  A
O326        C328   1.271       .  A
C327        O329   1.267       .  A
C327       C1848   1.488       .  S
C328       C1434   1.476       .  S
C330       C1324   1.482       .  S
Fe331       O347   2.100       .  S
Fe331       O337   2.038       .  S
Fe331       O344   2.041       .  S
Fe331       O336   2.102       .  S
Fe331       O342   1.969       .  S
Fe332       O335   2.091       .  S
Fe332       O339   2.049       .  S
Fe332       O343   2.090       .  S
Fe332       O348   2.038       .  S
Fe332       O342   1.964       .  S
Fe333       O351   2.056       .  S
Fe333       O338   2.075       .  S
Fe333       O345   2.081       .  S
Fe333       O334   2.045       .  S
Fe333       O342   1.968       .  S
O334        C341   1.265       .  A
O335        C349   1.273       .  A
O336        C341   1.276       .  A
O337        C340   1.266       .  A
O338        C350   1.269       .  A
O339        C352   1.267       .  A
C340        O345   1.270       .  A
C340       C1882   1.476       .  S
C341       C1288   1.478       .  S
O343        C346   1.272       .  A
O344        C346   1.263       .  A
C346       C1306   1.475       .  S
O347        C352   1.276       .  A
O348        C350   1.266       .  A
C349        O351   1.269       .  A
C349       C2208   1.485       .  S
C350       C1666   1.469       .  S
C352       C1326   1.480       .  S
Fe353       O369   2.060       .  S
Fe353       O359   2.058       .  S
Fe353       O366   2.063       .  S
Fe353       O358   2.042       .  S
Fe353       O364   1.960       .  S
Fe354       O357   2.048       .  S
Fe354       O361   2.070       .  S
Fe354       O365   2.077       .  S
Fe354       O370   2.078       .  S
Fe354       O364   1.957       .  S
Fe355       O373   2.069       .  S
Fe355       O360   2.073       .  S
Fe355       O367   2.083       .  S
Fe355       O356   2.075       .  S
Fe355       O364   1.967       .  S
O356        C363   1.270       .  A
O357        C371   1.268       .  A
O358        C363   1.267       .  A
O359        C362   1.268       .  A
O360        C372   1.272       .  A
O361        C374   1.270       .  A
C362        O367   1.272       .  A
C362       C1252   1.477       .  S
C363       C2136   1.472       .  S
O365        C368   1.270       .  A
O366        C368   1.269       .  A
C368       C1236   1.478       .  S
O369        C374   1.265       .  A
O370        C372   1.273       .  A
C371        O373   1.270       .  A
C371       C1216   1.474       .  S
C372       C1900   1.488       .  S
C374       C1270   1.475       .  S
Fe375       O391   2.067       .  S
Fe375       O381   2.069       .  S
Fe375       O388   2.079       .  S
Fe375       O380   2.055       .  S
Fe375       O386   1.980       .  S
Fe376       O379   2.044       .  S
Fe376       O383   2.071       .  S
Fe376       O387   2.055       .  S
Fe376       O392   2.069       .  S
Fe376       O386   1.975       .  S
Fe377       O395   2.080       .  S
Fe377       O382   2.069       .  S
Fe377       O389   2.061       .  S
Fe377       O378   2.085       .  S
Fe377       O386   1.986       .  S
O378        C385   1.277       .  A
O379        C393   1.269       .  A
O380        C385   1.270       .  A
O381        C384   1.267       .  A
O382        C394   1.268       .  A
O383        C396   1.268       .  A
C384        O389   1.265       .  A
C384       C1180   1.481       .  S
C385       C2062   1.473       .  S
O387        C390   1.266       .  A
O388        C390   1.270       .  A
C390       C1234   1.478       .  S
O391        C396   1.268       .  A
O392        C394   1.267       .  A
C393        O395   1.273       .  A
C393       C1162   1.476       .  S
C394       C2278   1.484       .  S
C396       C1200   1.481       .  S
Fe397       O413   2.068       .  S
Fe397       O403   2.073       .  S
Fe397       O410   2.059       .  S
Fe397       O402   2.065       .  S
Fe397       O408   1.978       .  S
Fe398       O401   2.079       .  S
Fe398       O405   2.078       .  S
Fe398       O409   2.076       .  S
Fe398       O414   2.068       .  S
Fe398       O408   1.979       .  S
Fe399       O417   2.046       .  S
Fe399       O404   2.067       .  S
Fe399       O411   2.051       .  S
Fe399       O400   2.059       .  S
Fe399       O408   1.971       .  S
O400        C407   1.264       .  A
O401        C415   1.269       .  A
O402        C407   1.264       .  A
O403        C406   1.274       .  A
O404        C416   1.272       .  A
O405        C418   1.271       .  A
C406        O411   1.268       .  A
C406       C1092   1.464   1_545  S
C407       C1738   1.475       .  S
O409        C412   1.270       .  A
O410        C412   1.268       .  A
C412       C2404   1.481       .  S
O413        C418   1.269       .  A
O414        C416   1.273       .  A
C415        O417   1.262       .  A
C415       C1146   1.474       .  S
C416       C1108   1.476       .  S
C418       C1126   1.480       .  S
Fe419       O435   2.087       .  S
Fe419       O425   2.058       .  S
Fe419       O432   2.062       .  S
Fe419       O424   2.074       .  S
Fe419       O430   1.977       .  S
Fe420       O423   2.073       .  S
Fe420       O427   2.063       .  S
Fe420       O431   2.082       .  S
Fe420       O436   2.054       .  S
Fe420       O430   1.971       .  S
Fe421       O439   2.064       .  S
Fe421       O426   2.077       .  S
Fe421       O433   2.090       .  S
Fe421       O422   2.059       .  S
Fe421       O430   1.971       .  S
O422        C429   1.263       .  A
O423        C437   1.267       .  A
O424        C429   1.267       .  A
O425        C428   1.273       .  A
O426        C438   1.274       .  A
O427        C440   1.269       .  A
C428        O433   1.277       .  A
C428       C1054   1.480   1_545  S
C429       C2080   1.480       .  S
O431        C434   1.271       .  A
O432        C434   1.269       .  A
C434       C2298   1.482       .  S
O435        C440   1.271       .  A
O436        C438   1.271       .  A
C437        O439   1.267       .  A
C437       C1072   1.486       .  S
C438       C1164   1.473       .  S
C440       C1128   1.482       .  S
Fe441       O457   2.053   1_455  S
Fe441       O447   2.068   1_455  S
Fe441       O454   2.072       .  S
Fe441       O446   2.050       .  S
Fe441       O452   1.970       .  S
Fe442       O445   2.058       .  S
Fe442       O449   2.074       .  S
Fe442       O453   2.079       .  S
Fe442       O458   2.073       .  S
Fe442       O452   1.966       .  S
Fe443       O461   2.063       .  S
Fe443       O448   2.065       .  S
Fe443       O455   2.071       .  S
Fe443       O444   2.066       .  S
Fe443       O452   1.973       .  S
O444        C451   1.269       .  A
O445        C459   1.272       .  A
O446        C451   1.269       .  A
O447        C450   1.269       .  A
O448        C460   1.268       .  A
O449        C462   1.269   1_455  A
C450        O455   1.269   1_655  A
C450       C1018   1.480       .  S
C451       C1792   1.467       .  S
O453        C456   1.272       .  A
O454        C456   1.272       .  A
C456       C1002   1.482       .  S
O457        C462   1.263       .  A
O458        C460   1.269       .  A
C459        O461   1.270       .  A
C459        C982   1.473   1_455  S
C460       C2010   1.484       .  S
C462       C1036   1.475       .  S
Fe463       O479   2.045       .  S
Fe463       O469   2.102       .  S
Fe463       O476   2.106       .  S
Fe463       O468   2.047       .  S
Fe463       O474   1.969       .  S
Fe464       O467   2.048       .  S
Fe464       O471   2.088       .  S
Fe464       O475   2.060       .  S
Fe464       O480   2.087       .  S
Fe464       O474   1.965       .  S
Fe465       O483   2.088       .  S
Fe465       O470   2.055       .  S
Fe465       O477   2.048       .  S
Fe465       O466   2.081       .  S
Fe465       O474   1.960       .  S
O466        C473   1.270       .  A
O467        C481   1.269       .  A
O468        C473   1.266       .  A
O469        C472   1.278       .  A
O470        C482   1.265       .  A
O471        C484   1.271       .  A
C472        O477   1.267       .  A
C472        C946   1.479       .  S
C473       C1722   1.476       .  S
O475        C478   1.271       .  A
O476        C478   1.279       .  A
C478       C1000   1.481       .  S
O479        C484   1.262       .  A
O480        C482   1.272       .  A
C481        O483   1.273       .  A
C481       C1110   1.477       .  S
C482       C2388   1.476       .  S
C484        C964   1.478       .  S
Fe485       O501   2.065       .  S
Fe485       O491   2.077   1_545  S
Fe485       O498   2.083       .  S
Fe485       O490   2.055       .  S
Fe485       O496   1.971       .  S
Fe486       O489   2.067       .  S
Fe486       O493   2.074       .  S
Fe486       O497   2.060       .  S
Fe486       O502   2.072       .  S
Fe486       O496   1.971       .  S
Fe487       O505   2.064       .  S
Fe487       O492   2.055       .  S
Fe487       O499   2.060       .  S
Fe487       O488   2.063       .  S
Fe487       O496   1.966       .  S
O488        C495   1.264       .  A
O489        C503   1.267       .  A
O490        C495   1.266       .  A
O491        C494   1.275       .  A
O492        C504   1.269       .  A
O493        C506   1.271       .  A
C494        O499   1.271   1_565  A
C494        C894   1.472       .  S
C495       C1828   1.473   1_645  S
O497        C500   1.268   1_655  A
O498        C500   1.272   1_655  A
C500       C2028   1.481       .  S
O501        C506   1.268       .  A
O502        C504   1.273       .  A
C503        O505   1.268       .  A
C503        C930   1.482       .  S
C504        C984   1.470       .  S
C506        C910   1.483       .  S
Fe507       O523   2.093       .  S
Fe507       O513   2.075       .  S
Fe507       O520   2.079       .  S
Fe507       O512   2.074       .  S
Fe507       O518   1.978       .  S
Fe508       O511   2.067       .  S
Fe508       O515   2.046       .  S
Fe508       O519   2.061       .  S
Fe508       O524   2.043       .  S
Fe508       O518   1.965       .  S
Fe509       O527   2.070       .  S
Fe509       O514   2.077       .  S
Fe509       O521   2.075       .  S
Fe509       O510   2.063       .  S
Fe509       O518   1.975       .  S
O510        C517   1.267       .  A
O511        C525   1.268       .  A
O512        C517   1.269       .  A
O513        C516   1.274   1_545  A
O514        C526   1.271       .  A
O515        C528   1.264       .  A
C516        O521   1.273   1_565  A
C516        C858   1.479       .  S
C517       C2190   1.481       .  S
O519        C522   1.268       .  A
O520        C522   1.272       .  A
C522       C1918   1.480       .  S
O523        C528   1.273       .  A
O524        C526   1.267       .  A
C525        O527   1.270       .  A
C525        C874   1.482       .  S
C526       C1218   1.477       .  S
C528        C912   1.478       .  S
Fe529       O545   2.095       .  S
Fe529       O535   2.047       .  S
Fe529       O542   2.052   1_655  S
Fe529       O534   2.081       .  S
Fe529       O540   1.982       .  S
Fe530       O533   2.078       .  S
Fe530       O537   2.049       .  S
Fe530       O541   2.078   1_655  S
Fe530       O546   2.041       .  S
Fe530       O540   1.978       .  S
Fe531       O549   2.061       .  S
Fe531       O536   2.081       .  S
Fe531       O543   2.085       .  S
Fe531       O532   2.067       .  S
Fe531       O540   1.982       .  S
O532        C539   1.271       .  A
O533        C547   1.273       .  A
O534        C539   1.273       .  A
O535        C538   1.265       .  A
O536        C548   1.269       .  A
O537        C550   1.264       .  A
C538        O543   1.270       .  A
C538        C856   1.481       .  S
C539       C1702   1.481   1_655  S
O541        C544   1.271       .  A
O542        C544   1.264       .  A
C544       C1308   1.476       .  S
O545        C550   1.273       .  A
O546        C548   1.264       .  A
C547        O549   1.272       .  A
C547       C1254   1.481       .  S
C548        C820   1.480       .  S
C550        C838   1.481       .  S
Fe551       O567   2.053       .  S
Fe551       O557   2.066       .  S
Fe551       O564   2.062       .  S
Fe551       O556   2.056       .  S
Fe551       O562   1.956       .  S
Fe552       O555   2.076       .  S
Fe552       O559   2.100       .  S
Fe552       O563   2.075       .  S
Fe552       O568   2.084       .  S
Fe552       O562   1.965       .  S
Fe553       O571   2.063       .  S
Fe553       O558   2.066       .  S
Fe553       O565   2.067       .  S
Fe553       O554   2.081       .  S
Fe553       O562   1.961       .  S
O554        C561   1.270       .  A
O555        C569   1.270       .  A
O556        C561   1.265       .  A
O557        C560   1.272       .  A
O558        C570   1.272       .  A
O559        C572   1.276       .  A
C560        O565   1.270       .  A
C560        C892   1.476       .  S
C561       C1470   1.475       .  S
O563        C566   1.271       .  A
O564        C566   1.267       .  A
C566       C1362   1.475       .  S
O567        C572   1.267       .  A
O568        C570   1.275       .  A
C569        O571   1.270       .  A
C569       C1020   1.485       .  S
C570        C802   1.480       .  S
C572        C840   1.483       .  S
Fe573       O589   2.034       .  S
Fe573       O579   2.076       .  S
Fe573       O586   2.078       .  S
Fe573       O578   2.038       .  S
Fe573       O584   1.973       .  S
Fe574       O577   2.044       .  S
Fe574       O581   2.090       .  S
Fe574       O585   2.069       .  S
Fe574       O590   2.088       .  S
Fe574       O584   1.970       .  S
Fe575       O593   2.082       .  S
Fe575       O580   2.055       .  S
Fe575       O587   2.066       .  S
Fe575       O576   2.071       .  S
Fe575       O584   1.972       .  S
O576        C583   1.269       .  A
O577        C591   1.266       .  A
O578        C583   1.267       .  A
O579        C582   1.270   1_455  A
O580        C592   1.267       .  A
O581        C594   1.274   1_455  A
C582        O587   1.270   1_655  A
C582        C876   1.480       .  S
C583       C1648   1.463       .  S
O585        C588   1.268       .  A
O586        C588   1.270       .  A
C588        C784   1.482       .  S
O589        C594   1.263   1_455  A
O590        C592   1.275       .  A
C591        O593   1.270       .  A
C591        C822   1.478       .  S
C592       C1290   1.477       .  S
C594       C1272   1.468       .  S
Fe595       O611   2.074       .  S
Fe595       O601   2.065       .  S
Fe595       O608   2.076       .  S
Fe595       O600   2.076       .  S
Fe595       O606   1.971       .  S
Fe596       O599   2.068       .  S
Fe596       O603   2.065       .  S
Fe596       O607   2.067       .  S
Fe596       O612   2.064       .  S
Fe596       O606   1.967       .  S
Fe597       O615   2.068       .  S
Fe597       O602   2.077       .  S
Fe597       O609   2.080       .  S
Fe597       O598   2.066       .  S
Fe597       O606   1.971       .  S
O598        C605   1.274       .  A
O599        C613   1.274       .  A
O600        C605   1.276       .  A
O601        C604   1.266       .  A
O602        C614   1.269       .  A
O603        C616   1.268       .  A
C604        O609   1.268       .  A
C604       C1074   1.485       .  S
C605       C1596   1.474       .  S
O607        C610   1.268       .  A
O608        C610   1.270       .  A
C610        C786   1.479       .  S
O611        C616   1.271       .  A
O612        C614   1.265       .  A
C613        O615   1.274       .  A
C613        C766   1.476       .  S
C614       C1560   1.485       .  S
C616       C1198   1.481       .  S
Fe617       O633   2.089       .  S
Fe617       O623   2.077       .  S
Fe617       O630   2.080       .  S
Fe617       O622   2.071       .  S
Fe617       O628   1.976       .  S
Fe618       O621   2.063       .  S
Fe618       O625   2.054       .  S
Fe618       O629   2.057       .  S
Fe618       O634   2.055       .  S
Fe618       O628   1.969       .  S
Fe619       O637   2.075       .  S
Fe619       O624   2.076       .  S
Fe619       O631   2.072       .  S
Fe619       O620   2.070       .  S
Fe619       O628   1.975       .  S
O620        C627   1.268       .  A
O621        C635   1.267       .  A
O622        C627   1.268       .  A
O623        C626   1.275       .  A
O624        C636   1.271       .  A
O625        C638   1.265       .  A
C626        O631   1.273       .  A
C626       C1056   1.478       .  S
C627       C1632   1.483       .  S
O629        C632   1.268       .  A
O630        C632   1.273       .  A
C632       C1578   1.478       .  S
O633        C638   1.272       .  A
O634        C636   1.269       .  A
C635        O637   1.270       .  A
C635       C1182   1.482       .  S
C636        C768   1.480       .  S
C638        C748   1.481       .  S
Fe639       O655   2.081       .  S
Fe639       O645   2.038       .  S
Fe639       O652   2.046       .  S
Fe639       O644   2.087       .  S
Fe639       O650   1.955       .  S
Fe640       O643   2.097       .  S
Fe640       O647   2.074       .  S
Fe640       O651   2.101       .  S
Fe640       O656   2.046       .  S
Fe640       O650   1.959       .  S
Fe641       O659   2.050       .  S
Fe641       O646   2.081       .  S
Fe641       O653   2.082       .  S
Fe641       O642   2.057       .  S
Fe641       O650   1.954       .  S
O642        C649   1.266       .  A
O643        C657   1.274       .  A
O644        C649   1.272       .  A
O645        C648   1.268       .  A
O646        C658   1.272       .  A
O647        C660   1.272       .  A
C648        O653   1.272       .  A
C648       C1090   1.471       .  S
C649       C1398   1.477       .  S
O651        C654   1.276       .  A
O652        C654   1.267       .  A
C654       C1522   1.478       .  S
O655        C660   1.271       .  A
O656        C658   1.270       .  A
C657        O659   1.264       .  A
C657        C948   1.477       .  S
C658        C730   1.472       .  S
C660        C750   1.483       .  S
Fe661       O677   2.043       .  S
Fe661       O667   2.080       .  S
Fe661       O674   2.083       .  S
Fe661       O666   2.044       .  S
Fe661       O672   1.972       .  S
Fe662       O665   2.047       .  S
Fe662       O669   2.084       .  S
Fe662       O673   2.059       .  S
Fe662       O678   2.085       .  S
Fe662       O672   1.971       .  S
Fe663       O681   2.083       .  S
Fe663       O668   2.058       .  S
Fe663       O675   2.067       .  S
Fe663       O664   2.074       .  S
Fe663       O672   1.973       .  S
O664        C671   1.267       .  A
O665        C679   1.265       .  A
O666        C671   1.264       .  A
O667        C670   1.274       .  A
O668        C680   1.269       .  A
O669        C682   1.272       .  A
C670        O675   1.273       .  A
C670        C928   1.478       .  S
C671       C1414   1.473       .  S
O673        C676   1.267       .  A
O674        C676   1.272       .  A
C676        C714   1.481       .  S
O677        C682   1.263       .  A
O678        C680   1.275       .  A
C679        O681   1.269       .  A
C679        C804   1.481       .  S
C680       C1344   1.473       .  S
C682       C1038   1.474       .  S
Fe683       O699   2.048       .  S
Fe683       O689   2.095       .  S
Fe683       O696   2.087       .  S
Fe683       O688   2.042       .  S
Fe683       O694   1.954       .  S
Fe684       O687   2.045       .  S
Fe684       O691   2.097       .  S
Fe684       O695   2.064       .  S
Fe684       O700   2.093       .  S
Fe684       O694   1.961       .  S
Fe685       O703   2.082       .  S
Fe685       O690   2.053       .  S
Fe685       O697   2.048       .  S
Fe685       O686   2.089       .  S
Fe685       O694   1.957       .  S
O686        C693   1.272       .  A
O687        C701   1.269       .  A
O688        C693   1.267       .  A
O689        C692   1.274       .  A
O690        C702   1.267       .  A
O691        C704   1.274       .  A
C692        O697   1.265       .  A
C692       C1144   1.477       .  S
C693       C1380   1.476       .  S
O695        C698   1.271       .  A
O696        C698   1.273       .  A
C698        C712   1.482       .  S
O699        C704   1.266       .  A
O700        C702   1.273       .  A
C701        O703   1.273       .  A
C701        C732   1.470       .  S
C702       C1504   1.481       .  S
C704        C966   1.480       .  S
C705        C713   1.494       .  S
C705        C706   1.404       .  A
C705        C710   1.409       .  A
C706        C707   1.401       .  A
C706        H715   1.083       .  S
C707        C708   1.410       .  A
C707        H716   1.080       .  S
C708        C711   1.494       .  S
C708        C709   1.404       .  A
C709        C710   1.399       .  A
C709        H717   1.083       .  S
C710        H718   1.080       .  S
C711        H719   1.088       .  S
C711        C712   1.348       .  D
C712        H720   1.084       .  S
C713        H721   1.086       .  S
C713        C714   1.347       .  D
C714        H722   1.083       .  S
C723        C731   1.478       .  S
C723        C724   1.403       .  A
C723        C728   1.404       .  A
C724        C725   1.396       .  A
C724        H733   1.084       .  S
C725        C726   1.407       .  A
C725        H734   1.081       .  S
C726        C729   1.480       .  S
C726        C727   1.403       .  A
C727        C728   1.394       .  A
C727        H735   1.084       .  S
C728        H736   1.082       .  S
C729        H737   1.087       .  S
C729        C730   1.345       .  D
C730        H738   1.085       .  S
C731        H739   1.087       .  S
C731        C732   1.345       .  D
C732        H740   1.085       .  S
C741        C749   1.496       .  S
C741        C742   1.404       .  A
C741        C746   1.412       .  A
C742        C743   1.400       .  A
C742        H751   1.083       .  S
C743        C744   1.408       .  A
C743        H752   1.082       .  S
C744        C747   1.493       .  S
C744        C745   1.403       .  A
C745        C746   1.403       .  A
C745        H753   1.083       .  S
C746        H754   1.081       .  S
C747        H755   1.086       .  S
C747        C748   1.346       .  D
C748        H756   1.086       .  S
C749        H757   1.087       .  S
C749        C750   1.347       .  D
C750        H758   1.084       .  S
C759        C767   1.484       .  S
C759        C760   1.405       .  A
C759        C764   1.406       .  A
C760        C761   1.396       .  A
C760        H769   1.084       .  S
C761        C762   1.406       .  A
C761        H770   1.080       .  S
C762        C765   1.485       .  S
C762        C763   1.405       .  A
C763        C764   1.398       .  A
C763        H771   1.084       .  S
C764        H772   1.080       .  S
C765        H773   1.087       .  S
C765        C766   1.349       .  D
C766        H774   1.084       .  S
C767        H775   1.087       .  S
C767        C768   1.351       .  D
C768        H776   1.084       .  S
C777        C785   1.486       .  S
C777        C778   1.404       .  A
C777        C782   1.406       .  A
C778        C779   1.402       .  A
C778        H787   1.083       .  S
C779        C780   1.406       .  A
C779        H788   1.083       .  S
C780        C783   1.486       .  S
C780        C781   1.403       .  A
C781        C782   1.400       .  A
C781        H789   1.083       .  S
C782        H790   1.083       .  S
C783        H791   1.087       .  S
C783        C784   1.347       .  D
C784        H792   1.087       .  S
C785        H793   1.087       .  S
C785        C786   1.346       .  D
C786        H794   1.087       .  S
C795        C803   1.491       .  S
C795        C796   1.405       .  A
C795        C800   1.408       .  A
C796        C797   1.397       .  A
C796        H805   1.084       .  S
C797        C798   1.407       .  A
C797        H806   1.080       .  S
C798        C801   1.490       .  S
C798        C799   1.405       .  A
C799        C800   1.401       .  A
C799        H807   1.084       .  S
C800        H808   1.079       .  S
C801        H809   1.087       .  S
C801        C802   1.349       .  D
C802        H810   1.084       .  S
C803        H811   1.087       .  S
C803        C804   1.351       .  D
C804        H812   1.083       .  S
C813        C821   1.486       .  S
C813        C814   1.405   1_455  A
C813        C818   1.406   1_554  A
C814        C815   1.398       .  A
C814        H823   1.084       .  S
C815        C816   1.407   1_554  A
C815        H824   1.080       .  S
C816        C819   1.487       .  S
C816        C817   1.405   1_655  A
C817        C818   1.397       .  A
C817        H825   1.084       .  S
C818        H826   1.080       .  S
C819        H827   1.087       .  S
C819        C820   1.351       .  D
C820        H828   1.084       .  S
C821        H829   1.087       .  S
C821        C822   1.350       .  D
C822        H830   1.084   1_554  S
C831        C839   1.495       .  S
C831        C832   1.403       .  A
C831        C836   1.411       .  A
C832        C833   1.399       .  A
C832        H841   1.083       .  S
C833        C834   1.410       .  A
C833        H842   1.081       .  S
C834        C837   1.496       .  S
C834        C835   1.404       .  A
C835        C836   1.403       .  A
C835        H843   1.083       .  S
C836        H844   1.081       .  S
C837        H845   1.086       .  S
C837        C838   1.346       .  D
C838        H846   1.085       .  S
C839        H847   1.087       .  S
C839        C840   1.346       .  D
C840        H848   1.084       .  S
C849        C857   1.486       .  S
C849        C850   1.405       .  A
C849        C854   1.406       .  A
C850        C851   1.398       .  A
C850        H859   1.082       .  S
C851        C852   1.404       .  A
C851        H860   1.083       .  S
C852        C855   1.483       .  S
C852        C853   1.405       .  A
C853        C854   1.402       .  A
C853        H861   1.083       .  S
C854        H862   1.083       .  S
C855        H863   1.088       .  S
C855        C856   1.349       .  D
C856        H864   1.086       .  S
C857        H865   1.087       .  S
C857        C858   1.349       .  D
C858        H866   1.086       .  S
C867        C875   1.494       .  S
C867        C868   1.406   1_554  A
C867        C872   1.408       .  A
C868        C869   1.402       .  A
C868        H877   1.083       .  S
C869        C870   1.407       .  A
C869        H878   1.081       .  S
C870        C873   1.491       .  S
C870        C871   1.405   1_556  A
C871        C872   1.398       .  A
C871        H879   1.083       .  S
C872        H880   1.081       .  S
C873        H881   1.087       .  S
C873        C874   1.351       .  D
C874        H882   1.084       .  S
C875        H883   1.086       .  S
C875        C876   1.349       .  D
C876        H884   1.083       .  S
C885        C893   1.481       .  S
C885        C886   1.404       .  A
C885        C890   1.405       .  A
C886        C887   1.399       .  A
C886        H895   1.083       .  S
C887        C888   1.406       .  A
C887        H896   1.082       .  S
C888        C891   1.481       .  S
C888        C889   1.403       .  A
C889        C890   1.395       .  A
C889        H897   1.083       .  S
C890        H898   1.082       .  S
C891        H899   1.087       .  S
C891        C892   1.347       .  D
C892        H900   1.085       .  S
C893        H901   1.087       .  S
C893        C894   1.346       .  D
C894        H902   1.085       .  S
C903        C911   1.492       .  S
C903        C904   1.403       .  A
C903        C908   1.408       .  A
C904        C905   1.403       .  A
C904        H913   1.083       .  S
C905        C906   1.412       .  A
C905        H914   1.080       .  S
C906        C909   1.494       .  S
C906        C907   1.404       .  A
C907        C908   1.397       .  A
C907        H915   1.083       .  S
C908        H916   1.083       .  S
C909        H917   1.087       .  S
C909        C910   1.348       .  D
C910        H918   1.083       .  S
C911        H919   1.086       .  S
C911        C912   1.344       .  D
C912        H920   1.086       .  S
C921        C929   1.489       .  S
C921        C922   1.403       .  A
C921        C926   1.409       .  A
C922        C923   1.395       .  A
C922        H931   1.084       .  S
C923        C924   1.407       .  A
C923        H932   1.081       .  S
C924        C927   1.491       .  S
C924        C925   1.405       .  A
C925        C926   1.403       .  A
C925        H933   1.083       .  S
C926        H934   1.080       .  S
C927        H935   1.087       .  S
C927        C928   1.348       .  D
C928        H936   1.084       .  S
C929        H937   1.087       .  S
C929        C930   1.349       .  D
C930        H938   1.084       .  S
C939        C947   1.492       .  S
C939        C940   1.403       .  A
C939        C944   1.410       .  A
C940        C941   1.400       .  A
C940        H949   1.083       .  S
C941        C942   1.410       .  A
C941        H950   1.081       .  S
C942        C945   1.493       .  S
C942        C943   1.403       .  A
C943        C944   1.401       .  A
C943        H951   1.083       .  S
C944        H952   1.081       .  S
C945        H953   1.087       .  S
C945        C946   1.345       .  D
C946        H954   1.085       .  S
C947        H955   1.087       .  S
C947        C948   1.347       .  D
C948        H956   1.085       .  S
C957        C965   1.494       .  S
C957        C958   1.405       .  A
C957        C962   1.410       .  A
C958        C959   1.402       .  A
C958        H967   1.083       .  S
C959        C960   1.409       .  A
C959        H968   1.082       .  S
C960        C963   1.490       .  S
C960        C961   1.402       .  A
C961        C962   1.398       .  A
C961        H969   1.083       .  S
C962        H970   1.080       .  S
C963        H971   1.087       .  S
C963        C964   1.345       .  D
C964        H972   1.085       .  S
C965        H973   1.087       .  S
C965        C966   1.347       .  D
C966        H974   1.084       .  S
C975        C983   1.479       .  S
C975        C976   1.402       .  A
C975        C980   1.405       .  A
C976        C977   1.396       .  A
C976        H985   1.084       .  S
C977        C978   1.408       .  A
C977        H986   1.080       .  S
C978        C981   1.480       .  S
C978        C979   1.402       .  A
C979        C980   1.393       .  A
C979        H987   1.084       .  S
C980        H988   1.081       .  S
C981        H989   1.088       .  S
C981        C982   1.345       .  D
C982        H990   1.084       .  S
C983        H991   1.087       .  S
C983        C984   1.345       .  D
C984        H992   1.085       .  S
C993       C1001   1.486       .  S
C993        C994   1.403       .  A
C993        C998   1.406       .  A
C994        C995   1.401       .  A
C994       H1003   1.083       .  S
C995        C996   1.406       .  A
C995       H1004   1.083       .  S
C996        C999   1.489       .  S
C996        C997   1.405       .  A
C997        C998   1.403       .  A
C997       H1005   1.083       .  S
C998       H1006   1.083       .  S
C999       H1007   1.086       .  S
C999       C1000   1.345       .  D
C1000      H1008   1.087       .  S
C1001      H1009   1.087       .  S
C1001      C1002   1.346       .  D
C1002      H1010   1.087       .  S
C1011      C1019   1.491       .  S
C1011      C1012   1.405       .  A
C1011      C1016   1.408       .  A
C1012      C1013   1.395       .  A
C1012      H1021   1.084       .  S
C1013      C1014   1.405       .  A
C1013      H1022   1.081       .  S
C1014      C1017   1.490       .  S
C1014      C1015   1.407       .  A
C1015      C1016   1.403       .  A
C1015      H1023   1.083       .  S
C1016      H1024   1.080       .  S
C1017      H1025   1.087       .  S
C1017      C1018   1.351       .  D
C1018      H1026   1.084       .  S
C1019      H1027   1.087       .  S
C1019      C1020   1.352       .  D
C1020      H1028   1.083       .  S
C1029      C1037   1.486       .  S
C1029      C1030   1.400       .  A
C1029      C1034   1.408       .  A
C1030      C1031   1.399       .  A
C1030      H1039   1.083       .  S
C1031      C1032   1.412       .  A
C1031      H1040   1.080       .  S
C1032      C1035   1.491       .  S
C1032      C1033   1.403       .  A
C1033      C1034   1.397       .  A
C1033      H1041   1.084       .  S
C1034      H1042   1.082       .  S
C1035      H1043   1.088       .  S
C1035      C1036   1.344       .  D
C1036      H1044   1.084       .  S
C1037      H1045   1.087       .  S
C1037      C1038   1.342       .  D
C1038      H1046   1.086       .  S
C1047      C1055   1.485       .  S
C1047      C1048   1.405       .  A
C1047      C1052   1.405       .  A
C1048      C1049   1.399       .  A
C1048      H1057   1.082       .  S
C1049      C1050   1.404       .  A
C1049      H1058   1.083       .  S
C1050      C1053   1.483       .  S
C1050      C1051   1.405       .  A
C1051      C1052   1.400       .  A
C1051      H1059   1.082       .  S
C1052      H1060   1.083       .  S
C1053      H1061   1.087       .  S
C1053      C1054   1.348       .  D
C1054      H1062   1.086       .  S
C1055      H1063   1.087       .  S
C1055      C1056   1.348       .  D
C1056      H1064   1.086       .  S
C1065      C1073   1.495       .  S
C1065      C1066   1.406       .  A
C1065      C1070   1.407       .  A
C1066      C1067   1.405       .  A
C1066      H1075   1.083       .  S
C1067      C1068   1.409       .  A
C1067      H1076   1.080       .  S
C1068      C1071   1.497       .  S
C1068      C1069   1.406       .  A
C1069      C1070   1.399       .  A
C1069      H1077   1.083       .  S
C1070      H1078   1.082       .  S
C1071      H1079   1.087       .  S
C1071      C1072   1.352       .  D
C1072      H1080   1.083       .  S
C1073      H1081   1.087       .  S
C1073      C1074   1.351       .  D
C1074      H1082   1.085       .  S
C1083      C1091   1.473       .  S
C1083      C1084   1.402       .  A
C1083      C1088   1.404       .  A
C1084      C1085   1.397       .  A
C1084      H1093   1.083       .  S
C1085      C1086   1.405       .  A
C1085      H1094   1.083       .  S
C1086      C1089   1.472       .  S
C1086      C1087   1.400       .  A
C1087      C1088   1.392       .  A
C1087      H1095   1.084       .  S
C1088      H1096   1.083       .  S
C1089      H1097   1.087       .  S
C1089      C1090   1.343       .  D
C1090      H1098   1.086       .  S
C1091      H1099   1.087       .  S
C1091      C1092   1.341       .  D
C1092      H1100   1.087       .  S
C1101      C1109   1.488       .  S
C1101      C1102   1.405       .  A
C1101      C1106   1.408       .  A
C1102      C1103   1.397       .  A
C1102      H1111   1.084       .  S
C1103      C1104   1.406       .  A
C1103      H1112   1.081       .  S
C1104      C1107   1.484       .  S
C1104      C1105   1.403       .  A
C1105      C1106   1.397       .  A
C1105      H1113   1.084       .  S
C1106      H1114   1.080       .  S
C1107      H1115   1.087       .  S
C1107      C1108   1.347       .  D
C1108      H1116   1.085       .  S
C1109      H1117   1.088       .  S
C1109      C1110   1.348       .  D
C1110      H1118   1.083       .  S
C1119      C1127   1.487       .  S
C1119      C1120   1.403       .  A
C1119      C1124   1.407       .  A
C1120      C1121   1.400       .  A
C1120      H1129   1.083       .  S
C1121      C1122   1.406       .  A
C1121      H1130   1.083       .  S
C1122      C1125   1.488       .  S
C1122      C1123   1.404       .  A
C1123      C1124   1.403       .  A
C1123      H1131   1.083       .  S
C1124      H1132   1.083       .  S
C1125      H1133   1.087       .  S
C1125      C1126   1.346       .  D
C1126      H1134   1.087       .  S
C1127      H1135   1.087       .  S
C1127      C1128   1.346       .  D
C1128      H1136   1.086       .  S
C1137      C1145   1.494       .  S
C1137      C1138   1.404       .  A
C1137      C1142   1.411       .  A
C1138      C1139   1.399       .  A
C1138      H1147   1.083       .  S
C1139      C1140   1.408       .  A
C1139      H1148   1.081       .  S
C1140      C1143   1.490       .  S
C1140      C1141   1.402       .  A
C1141      C1142   1.400       .  A
C1141      H1149   1.084       .  S
C1142      H1150   1.080       .  S
C1143      H1151   1.087       .  S
C1143      C1144   1.345       .  D
C1144      H1152   1.085       .  S
C1145      H1153   1.087       .  S
C1145      C1146   1.345       .  D
C1146      H1154   1.083       .  S
C1155      C1163   1.482       .  S
C1155      C1156   1.404       .  A
C1155      C1160   1.406       .  A
C1156      C1157   1.398       .  A
C1156      H1165   1.084       .  S
C1157      C1158   1.406       .  A
C1157      H1166   1.081       .  S
C1158      C1161   1.480       .  S
C1158      C1159   1.403       .  A
C1159      C1160   1.393       .  A
C1159      H1167   1.084       .  S
C1160      H1168   1.081       .  S
C1161      H1169   1.088       .  S
C1161      C1162   1.348       .  D
C1162      H1170   1.085       .  S
C1163      H1171   1.087       .  S
C1163      C1164   1.347       .  D
C1164      H1172   1.085       .  S
C1173      C1181   1.493       .  S
C1173      C1174   1.405       .  A
C1173      C1178   1.409       .  A
C1174      C1175   1.398       .  A
C1174      H1183   1.083       .  S
C1175      C1176   1.407       .  A
C1175      H1184   1.081       .  S
C1176      C1179   1.492       .  S
C1176      C1177   1.406       .  A
C1177      C1178   1.402       .  A
C1177      H1185   1.083       .  S
C1178      H1186   1.080       .  S
C1179      H1187   1.086       .  S
C1179      C1180   1.351       .  D
C1180      H1188   1.083       .  S
C1181      H1189   1.086       .  S
C1181      C1182   1.350       .  D
C1182      H1190   1.082       .  S
C1191      C1199   1.496       .  S
C1191      C1192   1.406       .  A
C1191      C1196   1.410       .  A
C1192      C1193   1.401       .  A
C1192      H1201   1.083       .  S
C1193      C1194   1.409       .  A
C1193      H1202   1.080       .  S
C1194      C1197   1.493       .  S
C1194      C1195   1.404       .  A
C1195      C1196   1.399       .  A
C1195      H1203   1.083       .  S
C1196      H1204   1.079       .  S
C1197      H1205   1.087       .  S
C1197      C1198   1.348       .  D
C1198      H1206   1.083       .  S
C1199      H1207   1.087       .  S
C1199      C1200   1.350       .  D
C1200      H1208   1.082       .  S
C1209      C1217   1.478       .  S
C1209      C1210   1.404       .  A
C1209      C1214   1.404   1_556  A
C1210      C1211   1.395       .  A
C1210      H1219   1.084       .  S
C1211      C1212   1.405   1_556  A
C1211      H1220   1.080       .  S
C1212      C1215   1.479       .  S
C1212      C1213   1.404       .  A
C1213      C1214   1.395       .  A
C1213      H1221   1.084       .  S
C1214      H1222   1.081       .  S
C1215      H1223   1.087       .  S
C1215      C1216   1.348       .  D
C1216      H1224   1.084       .  S
C1217      H1225   1.087       .  S
C1217      C1218   1.350       .  D
C1218      H1226   1.085   1_556  S
C1227      C1235   1.487       .  S
C1227      C1228   1.403       .  A
C1227      C1232   1.406       .  A
C1228      C1229   1.401       .  A
C1228      H1237   1.083       .  S
C1229      C1230   1.405       .  A
C1229      H1238   1.083       .  S
C1230      C1233   1.492       .  S
C1230      C1231   1.409       .  A
C1231      C1232   1.398       .  A
C1231      H1239   1.080       .  S
C1232      H1240   1.082       .  S
C1233      H1241   1.087       .  S
C1233      C1234   1.348       .  D
C1234      H1242   1.084       .  S
C1235      H1243   1.087       .  S
C1235      C1236   1.347       .  D
C1236      H1244   1.086       .  S
C1245      C1253   1.488       .  S
C1245      C1246   1.403       .  A
C1245      C1250   1.409       .  A
C1246      C1247   1.394   1_556  A
C1246      H1255   1.084   1_556  S
C1247      C1248   1.406   1_554  A
C1247      H1256   1.082       .  S
C1248      C1251   1.488   1_556  S
C1248      C1249   1.405       .  A
C1249      C1250   1.403       .  A
C1249      H1257   1.083       .  S
C1250      H1258   1.081       .  S
C1251      H1259   1.087   1_554  S
C1251      C1252   1.348       .  D
C1252      H1260   1.085       .  S
C1253      H1261   1.087       .  S
C1253      C1254   1.348       .  D
C1254      H1262   1.084       .  S
C1263      C1271   1.486       .  S
C1263      C1264   1.402       .  A
C1263      C1268   1.409       .  A
C1264      C1265   1.400       .  A
C1264      H1273   1.083       .  S
C1265      C1266   1.410       .  A
C1265      H1274   1.082       .  S
C1266      C1269   1.484       .  S
C1266      C1267   1.400       .  A
C1267      C1268   1.395       .  A
C1267      H1275   1.083       .  S
C1268      H1276   1.082       .  S
C1269      H1277   1.087       .  S
C1269      C1270   1.342       .  D
C1270      H1278   1.086       .  S
C1271      H1279   1.087       .  S
C1271      C1272   1.342       .  D
C1272      H1280   1.086       .  S
C1281      C1289   1.493       .  S
C1281      C1282   1.403       .  A
C1281      C1286   1.411   1_554  A
C1282      C1283   1.398       .  A
C1282      H1291   1.083       .  S
C1283      C1284   1.408   1_554  A
C1283      H1292   1.082       .  S
C1284      C1287   1.492       .  S
C1284      C1285   1.403       .  A
C1285      C1286   1.402       .  A
C1285      H1293   1.083       .  S
C1286      H1294   1.080       .  S
C1287      H1295   1.087       .  S
C1287      C1288   1.345       .  D
C1288      H1296   1.085       .  S
C1289      H1297   1.087       .  S
C1289      C1290   1.347       .  D
C1290      H1298   1.083       .  S
C1299      C1307   1.485       .  S
C1299      C1300   1.401       .  A
C1299      C1304   1.408       .  A
C1300      C1301   1.399       .  A
C1300      H1309   1.083       .  S
C1301      C1302   1.410       .  A
C1301      H1310   1.081       .  S
C1302      C1305   1.490       .  S
C1302      C1303   1.403       .  A
C1303      C1304   1.398       .  A
C1303      H1311   1.083       .  S
C1304      H1312   1.082       .  S
C1305      H1313   1.087       .  S
C1305      C1306   1.345       .  D
C1306      H1314   1.084       .  S
C1307      H1315   1.087       .  S
C1307      C1308   1.343       .  D
C1308      H1316   1.087       .  S
C1317      C1325   1.496       .  S
C1317      C1318   1.404       .  A
C1317      C1322   1.410       .  A
C1318      C1319   1.402       .  A
C1318      H1327   1.083       .  S
C1319      C1320   1.410       .  A
C1319      H1328   1.080       .  S
C1320      C1323   1.494       .  S
C1320      C1321   1.403       .  A
C1321      C1322   1.399       .  A
C1321      H1329   1.083       .  S
C1322      H1330   1.080       .  S
C1323      H1331   1.087       .  S
C1323      C1324   1.347       .  D
C1324      H1332   1.084       .  S
C1325      H1333   1.087       .  S
C1325      C1326   1.347       .  D
C1326      H1334   1.084       .  S
C1335      C1343   1.481       .  S
C1335      C1336   1.403       .  A
C1335      C1340   1.406       .  A
C1336      C1337   1.398       .  A
C1336      H1345   1.083       .  S
C1337      C1338   1.405       .  A
C1337      H1346   1.083       .  S
C1338      C1341   1.481       .  S
C1338      C1339   1.403       .  A
C1339      C1340   1.400       .  A
C1339      H1347   1.083       .  S
C1340      H1348   1.083       .  S
C1341      H1349   1.087       .  S
C1341      C1342   1.346       .  D
C1342      H1350   1.086       .  S
C1343      H1351   1.088       .  S
C1343      C1344   1.344       .  D
C1344      H1352   1.087       .  S
C1353      C1361   1.489       .  S
C1353      C1354   1.402       .  A
C1353      C1358   1.409       .  A
C1354      C1355   1.400       .  A
C1354      H1363   1.083       .  S
C1355      C1356   1.412       .  A
C1355      H1364   1.080       .  S
C1356      C1359   1.491       .  S
C1356      C1357   1.401       .  A
C1357      C1358   1.397       .  A
C1357      H1365   1.083       .  S
C1358      H1366   1.081       .  S
C1359      H1367   1.087       .  S
C1359      C1360   1.343       .  D
C1360      H1368   1.084       .  S
C1361      H1369   1.087       .  S
C1361      C1362   1.344       .  D
C1362      H1370   1.085       .  S
C1371      C1379   1.480       .  S
C1371      C1372   1.406       .  A
C1371      C1376   1.402       .  A
C1372      C1373   1.399       .  A
C1372      H1381   1.082       .  S
C1373      C1374   1.408       .  A
C1373      H1382   1.081       .  S
C1374      C1377   1.483       .  S
C1374      C1375   1.402       .  A
C1375      C1376   1.395       .  A
C1375      H1383   1.084       .  S
C1376      H1384   1.083       .  S
C1377      H1385   1.088       .  S
C1377      C1378   1.345       .  D
C1378      H1386   1.085       .  S
C1379      H1387   1.088       .  S
C1379      C1380   1.346       .  D
C1380      H1388   1.085       .  S
C1389      C1397   1.487       .  S
C1389      C1390   1.404       .  A
C1389      C1394   1.405       .  A
C1390      C1391   1.401       .  A
C1390      H1399   1.083       .  S
C1391      C1392   1.409       .  A
C1391      H1400   1.080       .  S
C1392      C1395   1.492       .  S
C1392      C1393   1.405       .  A
C1393      C1394   1.398       .  A
C1393      H1401   1.083       .  S
C1394      H1402   1.082       .  S
C1395      H1403   1.087       .  S
C1395      C1396   1.348       .  D
C1396      H1404   1.084       .  S
C1397      H1405   1.087       .  S
C1397      C1398   1.346       .  D
C1398      H1406   1.086       .  S
C1407      C1415   1.475       .  S
C1407      C1408   1.403       .  A
C1407      C1412   1.403       .  A
C1408      C1409   1.395       .  A
C1408      H1417   1.083       .  S
C1409      C1410   1.403       .  A
C1409      H1418   1.083       .  S
C1410      C1413   1.477       .  S
C1410      C1411   1.405       .  A
C1411      C1412   1.398       .  A
C1411      H1419   1.083       .  S
C1412      H1420   1.083       .  S
C1413      H1421   1.087       .  S
C1413      C1414   1.345       .  D
C1414      H1422   1.086       .  S
C1415      H1423   1.087       .  S
C1415      C1416   1.345       .  D
C1416      H1424   1.086       .  S
C1425      C1433   1.484       .  S
C1425      C1426   1.403       .  A
C1425      C1430   1.407       .  A
C1426      C1427   1.396       .  A
C1426      H1435   1.084       .  S
C1427      C1428   1.407       .  A
C1427      H1436   1.080       .  S
C1428      C1431   1.486       .  S
C1428      C1429   1.404       .  A
C1429      C1430   1.397       .  A
C1429      H1437   1.084       .  S
C1430      H1438   1.080       .  S
C1431      H1439   1.087       .  S
C1431      C1432   1.347       .  D
C1432      H1440   1.083       .  S
C1433      H1441   1.087       .  S
C1433      C1434   1.348       .  D
C1434      H1442   1.084       .  S
C1443      C1451   1.488       .  S
C1443      C1444   1.404       .  A
C1443      C1448   1.407       .  A
C1444      C1445   1.402       .  A
C1444      H1453   1.083       .  S
C1445      C1446   1.407       .  A
C1445      H1454   1.083       .  S
C1446      C1449   1.486       .  S
C1446      C1447   1.403       .  A
C1447      C1448   1.399       .  A
C1447      H1455   1.083       .  S
C1448      H1456   1.083       .  S
C1449      H1457   1.087       .  S
C1449      C1450   1.347       .  D
C1450      H1458   1.086       .  S
C1451      H1459   1.087       .  S
C1451      C1452   1.345       .  D
C1452      H1460   1.087       .  S
C1461      C1469   1.488       .  S
C1461      C1462   1.405       .  A
C1461      C1466   1.406       .  A
C1462      C1463   1.404       .  A
C1462      H1471   1.083       .  S
C1463      C1464   1.410       .  A
C1463      H1472   1.081       .  S
C1464      C1467   1.490       .  S
C1464      C1465   1.403       .  A
C1465      C1466   1.394       .  A
C1465      H1473   1.083       .  S
C1466      H1474   1.082       .  S
C1467      H1475   1.087       .  S
C1467      C1468   1.348       .  D
C1468      H1476   1.084       .  S
C1469      H1477   1.086       .  S
C1469      C1470   1.348       .  D
C1470      H1478   1.085       .  S
C1479      C1487   1.484       .  S
C1479      C1480   1.405       .  A
C1479      C1484   1.406       .  A
C1480      C1481   1.398       .  A
C1480      H1489   1.084       .  S
C1481      C1482   1.406       .  A
C1481      H1490   1.080       .  S
C1482      C1485   1.483       .  S
C1482      C1483   1.403       .  A
C1483      C1484   1.394       .  A
C1483      H1491   1.084       .  S
C1484      H1492   1.080       .  S
C1485      H1493   1.087       .  S
C1485      C1486   1.348       .  D
C1486      H1494   1.084       .  S
C1487      H1495   1.087       .  S
C1487      C1488   1.348       .  D
C1488      H1496   1.084       .  S
C1497      C1505   1.486       .  S
C1497      C1498   1.402       .  A
C1497      C1502   1.407       .  A
C1498      C1499   1.401       .  A
C1498      H1507   1.083       .  S
C1499      C1500   1.407       .  A
C1499      H1508   1.083       .  S
C1500      C1503   1.485       .  S
C1500      C1501   1.403       .  A
C1501      C1502   1.401       .  A
C1501      H1509   1.083       .  S
C1502      H1510   1.083       .  S
C1503      H1511   1.087       .  S
C1503      C1504   1.347       .  D
C1504      H1512   1.087       .  S
C1505      H1513   1.086       .  S
C1505      C1506   1.343       .  D
C1506      H1514   1.087       .  S
C1515      C1523   1.491       .  S
C1515      C1516   1.408       .  A
C1515      C1520   1.405       .  A
C1516      C1517   1.400       .  A
C1516      H1525   1.081       .  S
C1517      C1518   1.409       .  A
C1517      H1526   1.082       .  S
C1518      C1521   1.490       .  S
C1518      C1519   1.403       .  A
C1519      C1520   1.400       .  A
C1519      H1527   1.083       .  S
C1520      H1528   1.083       .  S
C1521      H1529   1.087       .  S
C1521      C1522   1.346       .  D
C1522      H1530   1.085       .  S
C1523      H1531   1.087       .  S
C1523      C1524   1.349       .  D
C1524      H1532   1.084       .  S
C1533      C1541   1.484       .  S
C1533      C1534   1.404       .  A
C1533      C1538   1.406       .  A
C1534      C1535   1.400       .  A
C1534      H1543   1.083       .  S
C1535      C1536   1.405       .  A
C1535      H1544   1.083       .  S
C1536      C1539   1.484       .  S
C1536      C1537   1.404       .  A
C1537      C1538   1.402       .  A
C1537      H1545   1.083       .  S
C1538      H1546   1.083       .  S
C1539      H1547   1.087       .  S
C1539      C1540   1.345       .  D
C1540      H1548   1.087       .  S
C1541      H1549   1.087       .  S
C1541      C1542   1.347       .  D
C1542      H1550   1.086       .  S
C1551      C1559   1.493       .  S
C1551      C1552   1.404       .  A
C1551      C1556   1.409       .  A
C1552      C1553   1.397       .  A
C1552      H1561   1.083       .  S
C1553      C1554   1.408       .  A
C1553      H1562   1.081       .  S
C1554      C1557   1.496       .  S
C1554      C1555   1.407       .  A
C1555      C1556   1.405       .  A
C1555      H1563   1.083       .  S
C1556      H1564   1.081       .  S
C1557      H1565   1.087       .  S
C1557      C1558   1.350       .  D
C1558      H1566   1.084       .  S
C1559      H1567   1.087       .  S
C1559      C1560   1.350       .  D
C1560      H1568   1.084       .  S
C1569      C1577   1.487       .  S
C1569      C1570   1.402       .  A
C1569      C1574   1.408       .  A
C1570      C1571   1.397       .  A
C1570      H1579   1.083       .  S
C1571      C1572   1.409       .  A
C1571      H1580   1.080       .  S
C1572      C1575   1.491       .  S
C1572      C1573   1.405       .  A
C1573      C1574   1.400       .  A
C1573      H1581   1.083       .  S
C1574      H1582   1.082       .  S
C1575      H1583   1.087       .  S
C1575      C1576   1.347       .  D
C1576      H1584   1.084       .  S
C1577      H1585   1.087       .  S
C1577      C1578   1.345       .  D
C1578      H1586   1.086       .  S
C1587      C1595   1.480       .  S
C1587      C1588   1.404       .  A
C1587      C1592   1.405       .  A
C1588      C1589   1.397       .  A
C1588      H1597   1.083       .  S
C1589      C1590   1.405       .  A
C1589      H1598   1.082       .  S
C1590      C1593   1.479       .  S
C1590      C1591   1.403       .  A
C1591      C1592   1.396       .  A
C1591      H1599   1.083       .  S
C1592      H1600   1.082       .  S
C1593      H1601   1.087       .  S
C1593      C1594   1.346       .  D
C1594      H1602   1.086       .  S
C1595      H1603   1.087       .  S
C1595      C1596   1.346       .  D
C1596      H1604   1.086       .  S
C1605      C1613   1.482       .  S
C1605      C1606   1.403       .  A
C1605      C1610   1.406       .  A
C1606      C1607   1.396       .  A
C1606      H1615   1.084       .  S
C1607      C1608   1.407       .  A
C1607      H1616   1.080       .  S
C1608      C1611   1.482   1_455  S
C1608      C1609   1.403   1_455  A
C1609      C1610   1.394   1_655  A
C1609      H1617   1.084       .  S
C1610      H1618   1.081       .  S
C1611      H1619   1.087       .  S
C1611      C1612   1.346       .  D
C1612      H1620   1.084       .  S
C1613      H1621   1.087       .  S
C1613      C1614   1.345       .  D
C1614      H1622   1.084       .  S
C1623      C1631   1.494       .  S
C1623      C1624   1.407       .  A
C1623      C1628   1.406       .  A
C1624      C1625   1.404       .  A
C1624      H1633   1.083       .  S
C1625      C1626   1.408       .  A
C1625      H1634   1.081       .  S
C1626      C1629   1.493       .  S
C1626      C1627   1.406       .  A
C1627      C1628   1.398       .  A
C1627      H1635   1.083       .  S
C1628      H1636   1.081       .  S
C1629      H1637   1.087       .  S
C1629      C1630   1.352       .  D
C1630      H1638   1.084       .  S
C1631      H1639   1.086       .  S
C1631      C1632   1.352       .  D
C1632      H1640   1.084       .  S
C1641      C1649   1.469       .  S
C1641      C1642   1.402       .  A
C1641      C1646   1.403       .  A
C1642      C1643   1.392       .  A
C1642      H1651   1.084       .  S
C1643      C1644   1.403       .  A
C1643      H1652   1.083       .  S
C1644      C1647   1.470       .  S
C1644      C1645   1.402       .  A
C1645      C1646   1.395       .  A
C1645      H1653   1.083       .  S
C1646      H1654   1.082       .  S
C1647      H1655   1.088       .  S
C1647      C1648   1.342       .  D
C1648      H1656   1.086       .  S
C1649      H1657   1.089       .  S
C1649      C1650   1.344       .  D
C1650      H1658   1.086       .  S
C1659      C1667   1.477       .  S
C1659      C1660   1.403       .  A
C1659      C1664   1.405   1_554  A
C1660      C1661   1.393       .  A
C1660      H1669   1.084       .  S
C1661      C1662   1.404   1_554  A
C1661      H1670   1.082       .  S
C1662      C1665   1.475       .  S
C1662      C1663   1.402       .  A
C1663      C1664   1.394       .  A
C1663      H1671   1.084       .  S
C1664      H1672   1.081       .  S
C1665      H1673   1.087       .  S
C1665      C1666   1.345       .  D
C1666      H1674   1.085       .  S
C1667      H1675   1.087       .  S
C1667      C1668   1.346       .  D
C1668      H1676   1.084       .  S
C1677      C1685   1.494       .  S
C1677      C1678   1.403       .  A
C1677      C1682   1.412       .  A
C1678      C1679   1.397       .  A
C1678      H1687   1.084       .  S
C1679      C1680   1.408       .  A
C1679      H1688   1.082       .  S
C1680      C1683   1.492       .  S
C1680      C1681   1.403       .  A
C1681      C1682   1.403       .  A
C1681      H1689   1.083       .  S
C1682      H1690   1.079       .  S
C1683      H1691   1.086       .  S
C1683      C1684   1.345       .  D
C1684      H1692   1.085       .  S
C1685      H1693   1.087       .  S
C1685      C1686   1.347       .  D
C1686      H1694   1.083       .  S
C1695      C1703   1.492       .  S
C1695      C1696   1.405       .  A
C1695      C1700   1.409       .  A
C1696      C1697   1.395   1_554  A
C1696      H1705   1.083   1_554  S
C1697      C1698   1.405   1_556  A
C1697      H1706   1.081       .  S
C1698      C1701   1.492   1_554  S
C1698      C1699   1.407       .  A
C1699      C1700   1.406       .  A
C1699      H1707   1.083       .  S
C1700      H1708   1.080       .  S
C1701      H1709   1.087   1_556  S
C1701      C1702   1.351       .  D
C1702      H1710   1.085       .  S
C1703      H1711   1.087       .  S
C1703      C1704   1.352       .  D
C1704      H1712   1.083       .  S
C1713      C1721   1.481       .  S
C1713      C1714   1.405       .  A
C1713      C1718   1.404       .  A
C1714      C1715   1.399       .  A
C1714      H1723   1.083       .  S
C1715      C1716   1.404       .  A
C1715      H1724   1.083       .  S
C1716      C1719   1.479       .  S
C1716      C1717   1.404       .  A
C1717      C1718   1.397       .  A
C1717      H1725   1.083       .  S
C1718      H1726   1.083       .  S
C1719      H1727   1.088       .  S
C1719      C1720   1.346       .  D
C1720      H1728   1.086       .  S
C1721      H1729   1.087       .  S
C1721      C1722   1.347       .  D
C1722      H1730   1.086       .  S
C1731      C1739   1.481       .  S
C1731      C1732   1.404       .  A
C1731      C1736   1.405       .  A
C1732      C1733   1.397       .  A
C1732      H1741   1.083       .  S
C1733      C1734   1.404       .  A
C1733      H1742   1.082   1_565  S
C1734      C1737   1.482       .  S
C1734      C1735   1.405       .  A
C1735      C1736   1.400       .  A
C1735      H1743   1.083       .  S
C1736      H1744   1.083       .  S
C1737      H1745   1.087       .  S
C1737      C1738   1.347   1_565  D
C1738      H1746   1.086       .  S
C1739      H1747   1.088       .  S
C1739      C1740   1.346       .  D
C1740      H1748   1.086       .  S
C1749      C1757   1.489       .  S
C1749      C1750   1.403       .  A
C1749      C1754   1.410       .  A
C1750      C1751   1.393       .  A
C1750      H1759   1.084       .  S
C1751      C1752   1.405       .  A
C1751      H1760   1.082       .  S
C1752      C1755   1.487       .  S
C1752      C1753   1.404       .  A
C1753      C1754   1.404       .  A
C1753      H1761   1.083       .  S
C1754      H1762   1.080       .  S
C1755      H1763   1.087       .  S
C1755      C1756   1.348       .  D
C1756      H1764   1.086       .  S
C1757      H1765   1.087       .  S
C1757      C1758   1.349       .  D
C1758      H1766   1.084       .  S
C1767      C1775   1.492       .  S
C1767      C1768   1.405       .  A
C1767      C1772   1.408       .  A
C1768      C1769   1.400       .  A
C1768      H1777   1.083       .  S
C1769      C1770   1.408       .  A
C1769      H1778   1.081       .  S
C1770      C1773   1.490       .  S
C1770      C1771   1.403       .  A
C1771      C1772   1.398       .  A
C1771      H1779   1.083       .  S
C1772      H1780   1.080       .  S
C1773      H1781   1.086       .  S
C1773      C1774   1.347       .  D
C1774      H1782   1.084       .  S
C1775      H1783   1.087       .  S
C1775      C1776   1.349       .  D
C1776      H1784   1.083       .  S
C1785      C1793   1.469       .  S
C1785      C1786   1.403       .  A
C1785      C1790   1.401       .  A
C1786      C1787   1.394       .  A
C1786      H1795   1.083       .  S
C1787      C1788   1.403       .  A
C1787      H1796   1.084       .  S
C1788      C1791   1.471       .  S
C1788      C1789   1.403       .  A
C1789      C1790   1.394       .  A
C1789      H1797   1.082       .  S
C1790      H1798   1.083       .  S
C1791      H1799   1.088       .  S
C1791      C1792   1.345       .  D
C1792      H1800   1.086       .  S
C1793      H1801   1.087       .  S
C1793      C1794   1.341       .  D
C1794      H1802   1.087       .  S
C1803      C1811   1.485       .  S
C1803      C1804   1.402       .  A
C1803      C1808   1.407       .  A
C1804      C1805   1.398       .  A
C1804      H1813   1.083       .  S
C1805      C1806   1.406       .  A
C1805      H1814   1.083       .  S
C1806      C1809   1.485       .  S
C1806      C1807   1.403       .  A
C1807      C1808   1.402       .  A
C1807      H1815   1.083       .  S
C1808      H1816   1.083       .  S
C1809      H1817   1.087       .  S
C1809      C1810   1.344       .  D
C1810      H1818   1.087       .  S
C1811      H1819   1.087       .  S
C1811      C1812   1.345       .  D
C1812      H1820   1.086       .  S
C1821      C1829   1.489       .  S
C1821      C1822   1.410       .  A
C1821      C1826   1.404       .  A
C1822      C1823   1.398       .  A
C1822      H1831   1.079       .  S
C1823      C1824   1.407       .  A
C1823      H1832   1.080       .  S
C1824      C1827   1.486       .  S
C1824      C1825   1.402       .  A
C1825      C1826   1.396       .  A
C1825      H1833   1.084       .  S
C1826      H1834   1.083       .  S
C1827      H1835   1.087       .  S
C1827      C1828   1.346       .  D
C1828      H1836   1.084   1_565  S
C1829      H1837   1.088       .  S
C1829      C1830   1.347       .  D
C1830      H1838   1.082       .  S
C1839      C1847   1.492       .  S
C1839      C1840   1.408       .  A
C1839      C1844   1.405       .  A
C1840      C1841   1.404       .  A
C1840      H1849   1.081       .  S
C1841      C1842   1.412       .  A
C1841      H1850   1.080       .  S
C1842      C1845   1.496       .  S
C1842      C1843   1.403       .  A
C1843      C1844   1.397       .  A
C1843      H1851   1.083       .  S
C1844      H1852   1.084       .  S
C1845      H1853   1.087       .  S
C1845      C1846   1.347       .  D
C1846      H1854   1.083       .  S
C1847      H1855   1.087       .  S
C1847      C1848   1.353       .  D
C1848      H1856   1.084       .  S
C1857      C1865   1.487       .  S
C1857      C1858   1.403       .  A
C1857      C1862   1.409       .  A
C1858      C1859   1.396       .  A
C1858      H1867   1.084       .  S
C1859      C1860   1.407       .  A
C1859      H1868   1.082       .  S
C1860      C1863   1.483       .  S
C1860      C1861   1.401       .  A
C1861      C1862   1.398       .  A
C1861      H1869   1.083       .  S
C1862      H1870   1.080       .  S
C1863      H1871   1.087       .  S
C1863      C1864   1.343       .  D
C1864      H1872   1.086       .  S
C1865      H1873   1.087       .  S
C1865      C1866   1.346       .  D
C1866      H1874   1.083       .  S
C1875      C1883   1.479       .  S
C1875      C1876   1.400       .  A
C1875      C1880   1.407       .  A
C1876      C1877   1.393       .  A
C1876      H1885   1.083       .  S
C1877      C1878   1.403       .  A
C1877      H1886   1.084       .  S
C1878      C1881   1.482       .  S
C1878      C1879   1.408       .  A
C1879      C1880   1.399       .  A
C1879      H1887   1.080       .  S
C1880      H1888   1.082       .  S
C1881      H1889   1.087       .  S
C1881      C1882   1.348       .  D
C1882      H1890   1.084       .  S
C1883      H1891   1.087       .  S
C1883      C1884   1.344       .  D
C1884      H1892   1.085       .  S
C1893      C1901   1.497       .  S
C1893      C1894   1.408   1_556  A
C1893      C1898   1.407       .  A
C1894      C1895   1.404       .  A
C1894      H1903   1.083       .  S
C1895      C1896   1.408       .  A
C1895      H1904   1.080       .  S
C1896      C1899   1.495       .  S
C1896      C1897   1.406   1_554  A
C1897      C1898   1.398       .  A
C1897      H1905   1.083       .  S
C1898      H1906   1.079       .  S
C1899      H1907   1.087       .  S
C1899      C1900   1.353       .  D
C1900      H1908   1.083       .  S
C1901      H1909   1.086       .  S
C1901      C1902   1.353       .  D
C1902      H1910   1.082       .  S
C1911      C1919   1.490       .  S
C1911      C1912   1.404       .  A
C1911      C1916   1.409       .  A
C1912      C1913   1.400       .  A
C1912      H1921   1.084       .  S
C1913      C1914   1.408       .  A
C1913      H1922   1.082       .  S
C1914      C1917   1.489       .  S
C1914      C1915   1.403       .  A
C1915      C1916   1.399       .  A
C1915      H1923   1.083       .  S
C1916      H1924   1.081       .  S
C1917      H1925   1.087       .  S
C1917      C1918   1.347       .  D
C1918      H1926   1.085       .  S
C1919      H1927   1.087       .  S
C1919      C1920   1.348       .  D
C1920      H1928   1.085       .  S
C1929      C1937   1.494       .  S
C1929      C1930   1.404       .  A
C1929      C1934   1.409   1_554  A
C1930      C1931   1.401       .  A
C1930      H1939   1.083       .  S
C1931      C1932   1.409   1_554  A
C1931      H1940   1.081       .  S
C1932      C1935   1.492       .  S
C1932      C1933   1.403       .  A
C1933      C1934   1.399       .  A
C1933      H1941   1.083       .  S
C1934      H1942   1.081       .  S
C1935      H1943   1.087       .  S
C1935      C1936   1.348       .  D
C1936      H1944   1.084       .  S
C1937      H1945   1.087       .  S
C1937      C1938   1.345       .  D
C1938      H1946   1.085   1_545  S
C1947      C1955   1.479       .  S
C1947      C1948   1.400       .  A
C1947      C1952   1.408       .  A
C1948      C1949   1.393       .  A
C1948      H1957   1.084       .  S
C1949      C1950   1.404       .  A
C1949      H1958   1.084       .  S
C1950      C1953   1.477       .  S
C1950      C1951   1.405       .  A
C1951      C1952   1.397       .  A
C1951      H1959   1.081       .  S
C1952      H1960   1.081       .  S
C1953      H1961   1.088       .  S
C1953      C1954   1.348       .  D
C1954      H1962   1.084       .  S
C1955      H1963   1.087       .  S
C1955      C1956   1.342       .  D
C1956      H1964   1.085       .  S
C1965      C1973   1.480       .  S
C1965      C1966   1.403       .  A
C1965      C1970   1.406       .  A
C1966      C1967   1.396   1_565  A
C1966      H1975   1.084   1_565  S
C1967      C1968   1.406       .  A
C1967      H1976   1.081       .  S
C1968      C1971   1.479       .  S
C1968      C1969   1.402   1_545  A
C1969      C1970   1.394       .  A
C1969      H1977   1.084       .  S
C1970      H1978   1.081       .  S
C1971      H1979   1.087       .  S
C1971      C1972   1.343       .  D
C1972      H1980   1.085       .  S
C1973      H1981   1.087       .  S
C1973      C1974   1.345       .  D
C1974      H1982   1.084       .  S
C1983      C1991   1.497       .  S
C1983      C1984   1.405       .  A
C1983      C1988   1.409       .  A
C1984      C1985   1.403       .  A
C1984      H1993   1.083       .  S
C1985      C1986   1.407       .  A
C1985      H1994   1.083       .  S
C1986      C1989   1.496       .  S
C1986      C1987   1.406       .  A
C1987      C1988   1.405       .  A
C1987      H1995   1.083       .  S
C1988      H1996   1.082       .  S
C1989      H1997   1.086       .  S
C1989      C1990   1.349       .  D
C1990      H1998   1.086       .  S
C1991      H1999   1.086       .  S
C1991      C1992   1.349       .  D
C1992      H2000   1.086       .  S
C2001      C2009   1.490       .  S
C2001      C2002   1.404       .  A
C2001      C2006   1.408       .  A
C2002      C2003   1.398       .  A
C2002      H2011   1.083       .  S
C2003      C2004   1.404       .  A
C2003      H2012   1.083       .  S
C2004      C2007   1.495       .  S
C2004      C2005   1.411       .  A
C2005      C2006   1.403       .  A
C2005      H2013   1.081       .  S
C2006      H2014   1.082       .  S
C2007      H2015   1.087       .  S
C2007      C2008   1.346       .  D
C2008      H2016   1.084       .  S
C2009      H2017   1.087       .  S
C2009      C2010   1.350       .  D
C2010      H2018   1.085       .  S
C2019      C2027   1.496       .  S
C2019      C2020   1.405       .  A
C2019      C2024   1.410       .  A
C2020      C2021   1.401       .  A
C2020      H2029   1.083       .  S
C2021      C2022   1.408       .  A
C2021      H2030   1.082       .  S
C2022      C2025   1.491       .  S
C2022      C2023   1.403       .  A
C2023      C2024   1.400       .  A
C2023      H2031   1.083       .  S
C2024      H2032   1.080       .  S
C2025      H2033   1.086       .  S
C2025      C2026   1.347       .  D
C2026      H2034   1.085       .  S
C2027      H2035   1.087       .  S
C2027      C2028   1.349       .  D
C2028      H2036   1.083       .  S
C2037      C2045   1.494       .  S
C2037      C2038   1.405       .  A
C2037      C2042   1.409       .  A
C2038      C2039   1.403       .  A
C2038      H2047   1.083       .  S
C2039      C2040   1.409       .  A
C2039      H2048   1.082   1_545  S
C2040      C2043   1.493       .  S
C2040      C2041   1.404       .  A
C2041      C2042   1.400       .  A
C2041      H2049   1.083       .  S
C2042      H2050   1.081       .  S
C2043      H2051   1.087       .  S
C2043      C2044   1.347   1_545  D
C2044      H2052   1.085       .  S
C2045      H2053   1.087       .  S
C2045      C2046   1.350       .  D
C2046      H2054   1.085       .  S
C2055      C2063   1.489       .  S
C2055      C2056   1.403       .  A
C2055      C2060   1.410       .  A
C2056      C2057   1.398       .  A
C2056      H2065   1.084       .  S
C2057      C2058   1.408       .  A
C2057      H2066   1.082       .  S
C2058      C2061   1.487       .  S
C2058      C2059   1.402       .  A
C2059      C2060   1.398       .  A
C2059      H2067   1.084       .  S
C2060      H2068   1.080       .  S
C2061      H2069   1.087       .  S
C2061      C2062   1.343       .  D
C2062      H2070   1.086       .  S
C2063      H2071   1.087       .  S
C2063      C2064   1.346       .  D
C2064      H2072   1.083       .  S
C2073      C2081   1.493       .  S
C2073      C2074   1.405       .  A
C2073      C2078   1.409       .  A
C2074      C2075   1.401       .  A
C2074      H2083   1.083       .  S
C2075      C2076   1.408       .  A
C2075      H2084   1.081   1_565  S
C2076      C2079   1.492       .  S
C2076      C2077   1.404       .  A
C2077      C2078   1.400       .  A
C2077      H2085   1.084       .  S
C2078      H2086   1.080       .  S
C2079      H2087   1.087       .  S
C2079      C2080   1.347   1_565  D
C2080      H2088   1.085       .  S
C2081      H2089   1.087       .  S
C2081      C2082   1.349       .  D
C2082      H2090   1.084       .  S
C2091      C2099   1.498       .  S
C2091      C2092   1.408       .  A
C2091      C2096   1.409       .  A
C2092      C2093   1.405       .  A
C2092      H2101   1.083       .  S
C2093      C2094   1.408       .  A
C2093      H2102   1.081       .  S
C2094      C2097   1.491       .  S
C2094      C2095   1.403       .  A
C2095      C2096   1.397       .  A
C2095      H2103   1.084       .  S
C2096      H2104   1.080       .  S
C2097      H2105   1.087       .  S
C2097      C2098   1.350       .  D
C2098      H2106   1.085       .  S
C2099      H2107   1.087       .  S
C2099      C2100   1.349       .  D
C2100      H2108   1.083       .  S
C2109      C2117   1.496       .  S
C2109      C2110   1.407       .  A
C2109      C2114   1.409       .  A
C2110      C2111   1.401       .  A
C2110      H2119   1.083       .  S
C2111      C2112   1.408       .  A
C2111      H2120   1.080       .  S
C2112      C2115   1.491       .  S
C2112      C2113   1.403       .  A
C2113      C2114   1.397       .  A
C2113      H2121   1.083       .  S
C2114      H2122   1.078       .  S
C2115      H2123   1.087       .  S
C2115      C2116   1.348       .  D
C2116      H2124   1.083       .  S
C2117      H2125   1.086       .  S
C2117      C2118   1.350       .  D
C2118      H2126   1.081       .  S
C2127      C2135   1.471       .  S
C2127      C2128   1.402       .  A
C2127      C2132   1.403       .  A
C2128      C2129   1.392       .  A
C2128      H2137   1.084       .  S
C2129      C2130   1.403       .  A
C2129      H2138   1.082       .  S
C2130      C2133   1.475       .  S
C2130      C2131   1.404       .  A
C2131      C2132   1.397       .  A
C2131      H2139   1.084       .  S
C2132      H2140   1.082       .  S
C2133      H2141   1.088       .  S
C2133      C2134   1.344       .  D
C2134      H2142   1.086       .  S
C2135      H2143   1.088       .  S
C2135      C2136   1.346       .  D
C2136      H2144   1.086       .  S
C2145      C2153   1.487       .  S
C2145      C2146   1.406   1_554  A
C2145      C2150   1.404   1_565  A
C2146      C2147   1.395   1_565  A
C2146      H2155   1.080       .  S
C2147      C2148   1.404       .  A
C2147      H2156   1.084   1_545  S
C2148      C2151   1.487       .  S
C2148      C2149   1.408   1_556  A
C2149      C2150   1.399       .  A
C2149      H2157   1.079       .  S
C2150      H2158   1.084       .  S
C2151      H2159   1.087       .  S
C2151      C2152   1.348       .  D
C2152      H2160   1.083   1_556  S
C2153      H2161   1.087       .  S
C2153      C2154   1.347       .  D
C2154      H2162   1.083       .  S
C2163      C2171   1.489       .  S
C2163      C2164   1.403       .  A
C2163      C2168   1.406       .  A
C2164      C2165   1.403       .  A
C2164      H2173   1.083       .  S
C2165      C2166   1.408       .  A
C2165      H2174   1.082       .  S
C2166      C2169   1.491       .  S
C2166      C2167   1.405       .  A
C2167      C2168   1.402       .  A
C2167      H2175   1.083       .  S
C2168      H2176   1.083       .  S
C2169      H2177   1.087       .  S
C2169      C2170   1.349       .  D
C2170      H2178   1.086       .  S
C2171      H2179   1.086       .  S
C2171      C2172   1.345       .  D
C2172      H2180   1.087       .  S
C2181      C2189   1.487   1_554  S
C2181      C2182   1.406       .  A
C2181      C2186   1.406       .  A
C2182      C2183   1.400       .  A
C2182      H2191   1.083       .  S
C2183      C2184   1.404       .  A
C2183      H2192   1.083       .  S
C2184      C2187   1.482       .  S
C2184      C2185   1.404       .  A
C2185      C2186   1.398       .  A
C2185      H2193   1.083       .  S
C2186      H2194   1.082   1_554  S
C2187      H2195   1.088       .  S
C2187      C2188   1.346       .  D
C2188      H2196   1.086       .  S
C2189      H2197   1.087   1_556  S
C2189      C2190   1.350   1_565  D
C2190      H2198   1.085   1_545  S
C2199      C2207   1.495       .  S
C2199      C2200   1.410       .  A
C2199      C2204   1.405   1_556  A
C2200      C2201   1.404       .  A
C2200      H2209   1.080       .  S
C2201      C2202   1.409   1_556  A
C2201      H2210   1.081       .  S
C2202      C2205   1.494       .  S
C2202      C2203   1.403       .  A
C2203      C2204   1.398       .  A
C2203      H2211   1.083       .  S
C2204      H2212   1.084       .  S
C2205      H2213   1.087       .  S
C2205      C2206   1.348       .  D
C2206      H2214   1.084       .  S
C2207      H2215   1.087       .  S
C2207      C2208   1.351       .  D
C2208      H2216   1.084       .  S
C2217      C2225   1.488       .  S
C2217      C2218   1.401       .  A
C2217      C2222   1.410       .  A
C2218      C2219   1.399       .  A
C2218      H2227   1.083       .  S
C2219      C2220   1.410       .  A
C2219      H2228   1.081       .  S
C2220      C2223   1.489       .  S
C2220      C2221   1.401       .  A
C2221      C2222   1.398       .  A
C2221      H2229   1.083       .  S
C2222      H2230   1.081       .  S
C2223      H2231   1.087       .  S
C2223      C2224   1.343       .  D
C2224      H2232   1.084       .  S
C2225      H2233   1.087       .  S
C2225      C2226   1.343       .  D
C2226      H2234   1.085       .  S
C2235      C2243   1.479       .  S
C2235      C2236   1.403       .  A
C2235      C2240   1.405       .  A
C2236      C2237   1.397       .  A
C2236      H2245   1.083       .  S
C2237      C2238   1.405       .  A
C2237      H2246   1.083       .  S
C2238      C2241   1.479       .  S
C2238      C2239   1.403       .  A
C2239      C2240   1.397       .  A
C2239      H2247   1.083       .  S
C2240      H2248   1.083       .  S
C2241      H2249   1.087       .  S
C2241      C2242   1.345       .  D
C2242      H2250   1.086       .  S
C2243      H2251   1.087       .  S
C2243      C2244   1.345       .  D
C2244      H2252   1.086       .  S
C2253      C2261   1.483       .  S
C2253      C2254   1.403   1_565  A
C2253      C2258   1.406       .  A
C2254      C2255   1.397       .  A
C2254      H2263   1.084       .  S
C2255      C2256   1.408       .  A
C2255      H2264   1.079       .  S
C2256      C2259   1.486       .  S
C2256      C2257   1.404       .  A
C2257      C2258   1.396   1_545  A
C2257      H2265   1.084       .  S
C2258      H2266   1.081       .  S
C2259      H2267   1.087       .  S
C2259      C2260   1.348       .  D
C2260      H2268   1.083       .  S
C2261      H2269   1.087       .  S
C2261      C2262   1.348       .  D
C2262      H2270   1.085       .  S
C2271      C2279   1.496       .  S
C2271      C2272   1.405       .  A
C2271      C2276   1.410       .  A
C2272      C2273   1.400       .  A
C2272      H2281   1.083       .  S
C2273      C2274   1.404       .  A
C2273      H2282   1.084       .  S
C2274      C2277   1.493       .  S
C2274      C2275   1.409       .  A
C2275      C2276   1.403       .  A
C2275      H2283   1.081       .  S
C2276      H2284   1.081       .  S
C2277      H2285   1.087       .  S
C2277      C2278   1.350       .  D
C2278      H2286   1.085       .  S
C2279      H2287   1.087       .  S
C2279      C2280   1.348       .  D
C2280      H2288   1.084       .  S
C2289      C2297   1.495       .  S
C2289      C2290   1.405       .  A
C2289      C2294   1.410       .  A
C2290      C2291   1.399       .  A
C2290      H2299   1.083       .  S
C2291      C2292   1.408       .  A
C2291      H2300   1.081       .  S
C2292      C2295   1.491       .  S
C2292      C2293   1.404       .  A
C2293      C2294   1.401       .  A
C2293      H2301   1.083       .  S
C2294      H2302   1.080       .  S
C2295      H2303   1.087       .  S
C2295      C2296   1.348       .  D
C2296      H2304   1.084       .  S
C2297      H2305   1.087       .  S
C2297      C2298   1.349       .  D
C2298      H2306   1.082       .  S
C2307      C2315   1.484       .  S
C2307      C2308   1.401       .  A
C2307      C2312   1.407       .  A
C2308      C2309   1.397       .  A
C2308      H2317   1.083       .  S
C2309      C2310   1.408       .  A
C2309      H2318   1.081       .  S
C2310      C2313   1.487       .  S
C2310      C2311   1.404       .  A
C2311      C2312   1.400       .  A
C2311      H2319   1.083       .  S
C2312      H2320   1.082       .  S
C2313      H2321   1.087       .  S
C2313      C2314   1.347       .  D
C2314      H2322   1.085       .  S
C2315      H2323   1.087       .  S
C2315      C2316   1.344       .  D
C2316      H2324   1.086   1_545  S
C2325      C2333   1.482       .  S
C2325      C2326   1.404       .  A
C2325      C2330   1.404       .  A
C2326      C2327   1.396       .  A
C2326      H2335   1.082       .  S
C2327      C2328   1.404       .  A
C2327      H2336   1.084       .  S
C2328      C2331   1.482       .  S
C2328      C2329   1.406       .  A
C2329      C2330   1.400       .  A
C2329      H2337   1.082       .  S
C2330      H2338   1.083       .  S
C2331      H2339   1.087       .  S
C2331      C2332   1.348       .  D
C2332      H2340   1.085       .  S
C2333      H2341   1.087       .  S
C2333      C2334   1.347       .  D
C2334      H2342   1.086       .  S
C2343      C2351   1.482       .  S
C2343      C2344   1.403       .  A
C2343      C2348   1.405       .  A
C2344      C2345   1.396   1_545  A
C2344      H2353   1.084   1_545  S
C2345      C2346   1.408       .  A
C2345      H2354   1.079       .  S
C2346      C2349   1.488   1_655  S
C2346      C2347   1.406   1_565  A
C2347      C2348   1.397       .  A
C2347      H2355   1.084       .  S
C2348      H2356   1.081       .  S
C2349      H2357   1.087       .  S
C2349      C2350   1.349       .  D
C2350      H2358   1.083       .  S
C2351      H2359   1.087       .  S
C2351      C2352   1.349       .  D
C2352      H2360   1.085       .  S
C2361      C2369   1.484       .  S
C2361      C2362   1.402       .  A
C2361      C2366   1.407       .  A
C2362      C2363   1.399       .  A
C2362      H2371   1.083       .  S
C2363      C2364   1.407       .  A
C2363      H2372   1.083       .  S
C2364      C2367   1.485       .  S
C2364      C2365   1.403       .  A
C2365      C2366   1.401       .  A
C2365      H2373   1.083       .  S
C2366      H2374   1.083       .  S
C2367      H2375   1.086       .  S
C2367      C2368   1.343       .  D
C2368      H2376   1.087       .  S
C2369      H2377   1.086       .  S
C2369      C2370   1.344       .  D
C2370      H2378   1.087       .  S
C2379      C2387   1.485       .  S
C2379      C2380   1.404       .  A
C2379      C2384   1.405       .  A
C2380      C2381   1.399       .  A
C2380      H2389   1.083       .  S
C2381      C2382   1.405       .  A
C2381      H2390   1.082       .  S
C2382      C2385   1.484       .  S
C2382      C2383   1.405       .  A
C2383      C2384   1.400       .  A
C2383      H2391   1.083       .  S
C2384      H2392   1.083       .  S
C2385      H2393   1.087   1_455  S
C2385      C2386   1.349       .  D
C2386      H2394   1.086       .  S
C2387      H2395   1.088       .  S
C2387      C2388   1.347       .  D
C2388      H2396   1.086       .  S
C2397      C2405   1.488       .  S
C2397      C2398   1.403       .  A
C2397      C2402   1.406       .  A
C2398      C2399   1.399       .  A
C2398      H2407   1.083       .  S
C2399      C2400   1.408       .  A
C2399      H2408   1.080       .  S
C2400      C2403   1.490       .  S
C2400      C2401   1.406       .  A
C2401      C2402   1.400       .  A
C2401      H2409   1.083       .  S
C2402      H2410   1.082       .  S
C2403      H2411   1.087       .  S
C2403      C2404   1.349       .  D
C2404      H2412   1.084       .  S
C2405      H2413   1.087       .  S
C2405      C2406   1.348       .  D
C2406      H2414   1.085       .  S
C2415      C2423   1.485       .  S
C2415      C2416   1.402       .  A
C2415      C2420   1.406       .  A
C2416      C2417   1.400       .  A
C2416      H2425   1.083       .  S
C2417      C2418   1.410       .  A
C2417      H2426   1.080       .  S
C2418      C2421   1.488       .  S
C2418      C2419   1.404       .  A
C2419      C2420   1.396       .  A
C2419      H2427   1.084       .  S
C2420      H2428   1.082       .  S
C2421      H2429   1.087       .  S
C2421      C2422   1.349       .  D
C2422      H2430   1.083       .  S
C2423      H2431   1.087       .  S
C2423      C2424   1.346       .  D
C2424      H2432   1.085       .  S
