geometry optimzed in LAMMPS
_audit_creation_date              2020-12-01 
_audit_creation_method            'lammps2cif' 
_symmetry_space_group_name_H-M    'P1' 
_symmetry_Int_Tables_number       1 
_symmetry_cell_setting            triclinic 
loop_ 
_symmetry_equiv_pos_as_xyz 
  x,y,z 
_cell_length_a                    36.47143421 
_cell_length_b                    42.63476223621402 
_cell_length_c                    43.44973616864228 
_cell_angle_alpha                 89.81744104983105 
_cell_angle_beta                  90.0959338981858 
_cell_angle_gamma                 89.88965535888266 
loop_ 
_atom_site_label 
_atom_site_type_symbol 
_atom_site_fract_x 
_atom_site_fract_y 
_atom_site_fract_z 
_atom_site_charge 
Fe1        Fe  0.85235085  0.46021370  0.37097032     1.65800
Fe2        Fe  0.85847621  0.39577837  0.41499584     1.73200
Fe3        Fe  0.78158660  0.40947545  0.37315813     1.54400
O4          O  0.75825199  0.45288457  0.38226417    -0.81600
O5          O  0.83506511  0.35281235  0.40123261    -0.79900
O6          O  0.80303936  0.48440583  0.36702048    -0.84100
O7          O  0.84655588  0.44538937  0.32637776    -0.79000
O8          O  0.76792384  0.39441922  0.41754134    -0.80800
O9          O  0.90121251  0.39123358  0.38412296    -0.83500
C10         C  0.81859449  0.43398985  0.31290290     0.97300
C11         C  0.76949572  0.47950731  0.37318745     1.04700
O12         O  0.83048326  0.42175584  0.38623051    -1.12500
O13         O  0.88398013  0.43428106  0.43576699    -0.74900
O14         O  0.85822273  0.47675139  0.41544634    -0.78400
O15         O  0.79137387  0.42251597  0.32751368    -0.79100
C16         C  0.87485418  0.46310539  0.43749092     0.96200
O17         O  0.90523300  0.44166932  0.37146094    -0.77100
O18         O  0.81803453  0.39968661  0.44688034    -0.82300
C19         C  0.81233120  0.34487474  0.38039126     0.98800
C20         C  0.78433287  0.39339520  0.44355348     1.04700
O21         O  0.79894014  0.36509198  0.36210570    -0.77900
C22         C  0.91932724  0.41439868  0.37361945     1.03000
Fe23       Fe  0.85698659  0.02333055  0.62103861     1.65800
Fe24       Fe  0.86035469  0.09049264  0.58056414     1.73200
Fe25       Fe  0.78248812  0.06999412  0.61782079     1.54400
O26         O  0.76435587  0.02620569  0.60425635    -0.81600
O27         O  0.83513691  0.13092688  0.59822322    -0.79900
O28         O  0.80934779  0.99683521  0.62286403    -0.84100
O29         O  0.84906075  0.03636496  0.66598651    -0.79000
O30         O  0.76949976  0.08730774  0.57396830    -0.80800
O31         O  0.90175287  0.09403962  0.61237545    -0.83500
C32         C  0.81936682  0.04536037  0.67857818     0.97300
C33         C  0.77655066  0.99998719  0.61355368     1.04700
O34         O  0.83302044  0.06149945  0.60657046    -1.12500
O35         O  0.88662363  0.05385102  0.55691735    -0.74900
O36         O  0.86433478  0.00931057  0.57616870    -0.78400
O37         O  0.79146705  0.05445927  0.66299898    -0.79100
C38         C  0.87869289  0.02478767  0.55424025     0.96200
O39         O  0.90900652  0.04335485  0.62199139    -0.77100
O40         O  0.82174513  0.08930581  0.54727458    -0.82300
C41         C  0.81009186  0.13649152  0.61794297     0.98800
C42         C  0.78742853  0.09252874  0.54922813     1.04700
O43         O  0.79432433  0.11459827  0.63255539    -0.77900
C44         C  0.92145914  0.07117076  0.62105232     1.03000
Fe45       Fe  0.14066575  0.46573070  0.37006211     1.65800
Fe46       Fe  0.13913486  0.39952531  0.41166106     1.73200
Fe47       Fe  0.21598650  0.42018597  0.37296495     1.54400
O48         O  0.20653518  0.43531697  0.32764451    -0.81600
O49         O  0.17835648  0.40234714  0.44448128    -0.79900
O50         O  0.14807873  0.45137163  0.32548716    -0.84100
O51         O  0.18812079  0.49266888  0.36676333    -0.79000
O52         O  0.20421444  0.37552664  0.35877015    -0.80800
O53         O  0.11219879  0.43610127  0.43452930    -0.83500
C54         C  0.22111060  0.48987360  0.37578517     0.97300
C55         C  0.17787695  0.44317192  0.31247146     1.04700
O56         O  0.16550982  0.42826698  0.38480451    -1.12500
O57         O  0.09705743  0.39455410  0.38061577    -0.74900
O58         O  0.08878249  0.44500171  0.37042961    -0.78400
O59         O  0.23343125  0.46407016  0.38596230    -0.79100
C60         C  0.07659364  0.41708574  0.37235417     0.96200
O61         O  0.13388257  0.48067081  0.41481480    -0.77100
O62         O  0.16502517  0.35934087  0.39444330    -0.82300
C63         C  0.21265435  0.39905361  0.44201705     0.98800
C64         C  0.18949044  0.35374212  0.37423992     1.04700
O65         O  0.22998043  0.40345516  0.41684224    -0.77900
C66         C  0.11992238  0.46519611  0.43696178     1.03000
Fe67       Fe  0.14348352  0.02749170  0.62168267     1.65800
Fe68       Fe  0.14053922  0.09242974  0.57861359     1.73200
Fe69       Fe  0.21563434  0.07658597  0.62131954     1.54400
O70         O  0.20422273  0.06189178  0.66636395    -0.81600
O71         O  0.18165598  0.08801052  0.54786559    -0.79900
O72         O  0.14731078  0.04248868  0.66641343    -0.84100
O73         O  0.19226001  0.00236861  0.62677139    -0.79000
O74         O  0.19955346  0.12085666  0.63416640    -0.80800
O75         O  0.11508908  0.05468051  0.55647617    -0.83500
C76         C  0.22541345  0.00668529  0.61883881     0.97300
C77         C  0.17523792  0.05308818  0.68048971     1.04700
O78         O  0.16673419  0.06567742  0.60744599    -1.12500
O79         O  0.09713035  0.09758147  0.60821562    -0.74900
O80         O  0.09116425  0.04697003  0.61943900    -0.78400
O81         O  0.23688386  0.03322101  0.60984356    -0.79100
C82         C  0.07794040  0.07458695  0.61733011     0.96200
O83         O  0.13943987  0.01157788  0.57688118    -0.77100
O84         O  0.16461296  0.13416191  0.59446366    -0.82300
C85         C  0.21493099  0.09536094  0.55160089     0.98800
C86         C  0.18661232  0.14147381  0.61613122     1.04700
O87         O  0.23096353  0.09367312  0.57774637    -0.77900
C88         C  0.12424694  0.02586207  0.55448160     1.03000
Fe89       Fe  0.35418666  0.21510866  0.37119477     1.65800
Fe90       Fe  0.35779105  0.14864930  0.41234552     1.73200
Fe91       Fe  0.27967173  0.16881925  0.37459597     1.54400
O92         O  0.26147637  0.21275820  0.38771030    -0.81600
O93         O  0.33181858  0.10810272  0.39597581    -0.79900
O94         O  0.30640336  0.24186583  0.36877708    -0.84100
O95         O  0.34621908  0.20122157  0.32657473    -0.79000
O96         O  0.26675668  0.15183831  0.41861364    -0.80800
O97         O  0.39967695  0.14405571  0.38069205    -0.83500
C98         C  0.31657750  0.19249998  0.31369977     0.97300
C99         C  0.27360708  0.23881894  0.37810493     1.04700
O100        O  0.33030700  0.17726883  0.38588921    -1.12500
O101        O  0.38499451  0.18524564  0.43485499    -0.74900
O102        O  0.36196104  0.22971981  0.41598023    -0.78400
O103        O  0.28830565  0.18394621  0.32898765    -0.79100
C104        C  0.37698259  0.21422647  0.43770078     0.96200
O105        O  0.40611317  0.19466221  0.37038088    -0.77100
O106        O  0.31891596  0.15144467  0.44547842    -0.82300
C107        C  0.30658575  0.10238081  0.37646798     0.98800
C108        C  0.28462075  0.14743652  0.44358225     1.04700
O109        O  0.29183486  0.12406060  0.36066021    -0.77900
C110        C  0.41906390  0.16691855  0.37147575     1.03000
Fe111      Fe  0.35405936  0.27801120  0.62038980     1.65800
Fe112      Fe  0.36019003  0.34586957  0.58066074     1.73200
Fe113      Fe  0.28054027  0.32539669  0.61633894     1.54400
O114        O  0.26171159  0.28146955  0.60303837    -0.81600
O115        O  0.33658871  0.38653698  0.59925659    -0.79900
O116        O  0.30591780  0.25153861  0.62197819    -0.84100
O117        O  0.34579092  0.29115868  0.66527476    -0.79000
O118        O  0.26849267  0.34186542  0.57202392    -0.80800
O119        O  0.40233402  0.34737164  0.61230258    -0.83500
C120        C  0.31667517  0.30134455  0.67798024     0.97300
C121        C  0.27336496  0.25503574  0.61217111     1.04700
O122        O  0.33136989  0.31676922  0.60586622    -1.12500
O123        O  0.38510436  0.30914109  0.55632806    -0.74900
O124        O  0.36192383  0.26478629  0.57543613    -0.78400
O125        O  0.28899140  0.31089015  0.66226016    -0.79100
C126        C  0.37719227  0.28010805  0.55372468     0.96200
O127        O  0.40684277  0.29653532  0.62183132    -0.77100
O128        O  0.32166458  0.34717883  0.54698314    -0.82300
C129        C  0.30996366  0.39212648  0.61742554     0.98800
C130        C  0.28706503  0.34852196  0.54795017     1.04700
O131        O  0.29200861  0.37026591  0.63025976    -0.77900
C132        C  0.42102925  0.32367032  0.62053320     1.03000
Fe133      Fe  0.64471487  0.20980982  0.37216412     1.65800
Fe134      Fe  0.63739353  0.13951293  0.40798698     1.73200
Fe135      Fe  0.71719754  0.16042647  0.37277516     1.54400
O136        O  0.70840287  0.17758860  0.32788738    -0.81600
O137        O  0.67664893  0.13438361  0.44067344    -0.79900
O138        O  0.65258690  0.19967430  0.32659713    -0.84100
O139        O  0.69356937  0.23514730  0.37180666    -0.79000
O140        O  0.70445013  0.11631493  0.35701388    -0.80800
O141        O  0.61528040  0.17544032  0.43548399    -0.83500
C142        C  0.72662817  0.23035945  0.37971738     0.97300
C143        C  0.68141899  0.18988813  0.31321425     1.04700
O144        O  0.66667299  0.16964352  0.38427527    -1.12500
O145        O  0.59440673  0.14115169  0.37706071    -0.74900
O146        O  0.59142566  0.19240222  0.36945183    -0.78400
O147        O  0.73783374  0.20330386  0.38736140    -0.79100
C148        C  0.57663061  0.16545275  0.36914717     0.96200
O149        O  0.63701057  0.22107897  0.41769708    -0.77100
O150        O  0.65857530  0.09942639  0.38629833    -0.82300
C151        C  0.71122412  0.13347222  0.43985055     0.98800
C152        C  0.68535006  0.09418548  0.36817265     1.04700
O153        O  0.72972103  0.14186999  0.41625586    -0.77900
C154        C  0.62281253  0.20452240  0.43897009     1.03000
Fe155      Fe  0.64348256  0.27367735  0.62142699     1.65800
Fe156      Fe  0.64148376  0.33758941  0.57596099     1.73200
Fe157      Fe  0.71640561  0.32112504  0.61876874     1.54400
O158        O  0.70651710  0.30808228  0.66444534    -0.81600
O159        O  0.68200877  0.33087468  0.54460234    -0.79900
O160        O  0.64959717  0.28893528  0.66604292    -0.84100
O161        O  0.69191190  0.24736086  0.62516305    -0.79000
O162        O  0.69943550  0.36497431  0.63085031    -0.80800
O163        O  0.61383667  0.30013614  0.55548926    -0.83500
C164        C  0.72503444  0.25100218  0.61659623     0.97300
C165        C  0.67807244  0.29958540  0.67933465     1.04700
O166        O  0.66724818  0.31080495  0.60552567    -1.12500
O167        O  0.59851332  0.34460414  0.60591799    -0.74900
O168        O  0.59175812  0.29472069  0.62009919    -0.78400
O169        O  0.73722263  0.27742161  0.60794168    -0.79100
C170        C  0.57888230  0.32232612  0.61625870     0.96200
O171        O  0.63706647  0.25728848  0.57720793    -0.77100
O172        O  0.66772973  0.37942685  0.58990963    -0.82300
C173        C  0.71563585  0.33700619  0.54837966     0.98800
C174        C  0.68955558  0.38592059  0.61192729     1.04700
O175        O  0.73115409  0.33664026  0.57475687    -0.77900
C176        C  0.62175967  0.27107249  0.55454484     1.03000
Fe177      Fe  0.85133967  0.46941350  0.12187347     1.65800
Fe178      Fe  0.85654268  0.40391217  0.07916950     1.73200
Fe179      Fe  0.77928286  0.42022037  0.11951837     1.54400
O180        O  0.78892846  0.43364109  0.16503338    -0.81600
O181        O  0.81621879  0.40639265  0.04689821    -0.79900
O182        O  0.84460049  0.45549364  0.16676335    -0.84100
O183        O  0.80249792  0.49477350  0.12412690    -0.79000
O184        O  0.79502825  0.37584885  0.13211099    -0.80800
O185        O  0.88200867  0.44154181  0.05680464    -0.83500
C186        C  0.76915016  0.49045316  0.11671748     0.97300
C187        C  0.81651097  0.44408176  0.17995018     1.04700
O188        O  0.82879958  0.43108556  0.10692822    -1.12500
O189        O  0.89918273  0.39975127  0.11012301    -0.74900
O190        O  0.90380462  0.45002820  0.12264593    -0.78400
O191        O  0.75746137  0.46378341  0.10846468    -0.79100
C192        C  0.91747014  0.42260703  0.12077781     0.96200
O193        O  0.85833259  0.48473553  0.07727440    -0.77100
O194        O  0.83324675  0.36200560  0.09500308    -0.82300
C195        C  0.78212665  0.40146767  0.04988249     0.98800
C196        C  0.80980722  0.35499365  0.11552884     1.04700
O197        O  0.76547623  0.40448436  0.07552188    -0.77900
C198        C  0.87381052  0.47054571  0.05507957     1.03000
Fe199      Fe  0.85031420  0.03531424  0.87118745     1.65800
Fe200      Fe  0.85197781  0.10181514  0.91185253     1.73200
Fe201      Fe  0.77660911  0.08314843  0.87032180     1.54400
O202        O  0.78759804  0.06675129  0.82573439    -0.81600
O203        O  0.81110252  0.09832811  0.94273762    -0.79900
O204        O  0.84495879  0.04805038  0.82585709    -0.84100
O205        O  0.80191101  0.00917236  0.86771074    -0.79000
O206        O  0.79138278  0.12728289  0.85587504    -0.80800
O207        O  0.87789057  0.06545346  0.93577420    -0.83500
C208        C  0.76858332  0.01317150  0.87547488     0.97300
C209        C  0.81598172  0.05651796  0.81168227     1.04700
O210        O  0.82619078  0.07364882  0.88411661    -1.12500
O211        O  0.89568988  0.10628009  0.88257996    -0.74900
O212        O  0.90269099  0.05556804  0.87234658    -0.78400
O213        O  0.75645966  0.03978440  0.88360433    -0.79100
C214        C  0.91569626  0.08320139  0.87502122     0.96200
O215        O  0.85552646  0.02118789  0.91643310    -0.77100
O216        O  0.82726360  0.14248768  0.89419752    -0.82300
C217        C  0.77749500  0.10444367  0.93913151     0.98800
C218        C  0.80431782  0.14869197  0.87286646     1.04700
O219        O  0.76115137  0.10147152  0.91326665    -0.77900
C220        C  0.86996273  0.03650049  0.93839659     1.03000
Fe221      Fe  0.13729551  0.47172300  0.12313603     1.65800
Fe222      Fe  0.13409652  0.40704496  0.07979534     1.73200
Fe223      Fe  0.21202873  0.42611575  0.11729390     1.54400
O224        O  0.22943882  0.47074365  0.10549105    -0.81600
O225        O  0.16164295  0.36591962  0.09382467    -0.79900
O226        O  0.18492733  0.49892750  0.12633885    -0.84100
O227        O  0.14547720  0.45549909  0.16689481    -0.79000
O228        O  0.22390851  0.41097868  0.07236654    -0.80800
O229        O  0.09404402  0.40013246  0.11232878    -0.83500
C230        C  0.17505339  0.44578315  0.17919030     0.97300
C231        C  0.21750213  0.49644398  0.11617305     1.04700
O232        O  0.16144171  0.43478155  0.10684482    -1.12500
O233        O  0.10512337  0.44445709  0.05993514    -0.74900
O234        O  0.12924157  0.48822774  0.07905189    -0.78400
O235        O  0.20364089  0.43898203  0.16345446    -0.79100
C236        C  0.11381879  0.47333495  0.05730503     0.96200
O237        O  0.08585056  0.45043605  0.12319027    -0.77100
O238        O  0.17144310  0.41263812  0.04594015    -0.82300
C239        C  0.18630880  0.35963821  0.11376456     0.98800
C240        C  0.20557242  0.40791350  0.04737911     1.04700
O241        O  0.20048003  0.38091923  0.13017830    -0.77900
C242        C  0.07392630  0.42238594  0.12173339     1.03000
Fe243      Fe  0.13974570  0.03766232  0.87222544     1.65800
Fe244      Fe  0.13606859  0.10226974  0.91584330     1.73200
Fe245      Fe  0.21170085  0.08661541  0.87395714     1.54400
O246        O  0.23310029  0.04348705  0.88642506    -0.81600
O247        O  0.16032583  0.14438207  0.90026621    -0.79900
O248        O  0.18869448  0.01293919  0.86853505    -0.84100
O249        O  0.14496465  0.05222670  0.82752928    -0.79000
O250        O  0.22620439  0.10396324  0.91746864    -0.80800
O251        O  0.09245772  0.10716572  0.88580148    -0.83500
C252        C  0.17409047  0.06101725  0.81401009     0.97300
C253        C  0.22159978  0.01707162  0.87726701     1.04700
O254        O  0.16259113  0.07570795  0.88709738    -1.12500
O255        O  0.11056056  0.06427820  0.93743187    -0.74900
O256        O  0.13474269  0.02153440  0.91663999    -0.78400
O257        O  0.20206671  0.07103860  0.82877993    -0.79100
C258        C  0.11935168  0.03536063  0.93899219     0.96200
O259        O  0.08712798  0.05683697  0.87317533    -0.77100
O260        O  0.17706542  0.09788125  0.94746892    -0.82300
C261        C  0.18244933  0.15138554  0.87859157     0.98800
C262        C  0.21054162  0.10461147  0.94373478     1.04700
O263        O  0.19464306  0.13045850  0.86060664    -0.77900
C264        C  0.07354680  0.08423175  0.87591201     1.03000
Fe265      Fe  0.35297482  0.22212935  0.12295449     1.65800
Fe266      Fe  0.35453189  0.15863131  0.07747156     1.73200
Fe267      Fe  0.27935296  0.17517745  0.11973063     1.54400
O268        O  0.28945520  0.18863918  0.16525872    -0.81600
O269        O  0.31342980  0.16441986  0.04596756    -0.79900
O270        O  0.34742667  0.20543807  0.16721330    -0.84100
O271        O  0.30468096  0.24832886  0.12774329    -0.79000
O272        O  0.29451436  0.13063363  0.13192973    -0.80800
O273        O  0.38098332  0.19659979  0.05667201    -0.83500
C274        C  0.27184578  0.24514420  0.11832210     0.97300
C275        C  0.31833390  0.19582670  0.18031086     1.04700
O276        O  0.32888389  0.18512001  0.10688681    -1.12500
O277        O  0.39842307  0.15205625  0.10710442    -0.74900
O278        O  0.40507505  0.20182587  0.12115034    -0.78400
O279        O  0.25989672  0.21916879  0.10840736    -0.79100
C280        C  0.41808424  0.17433178  0.11740297     0.96200
O281        O  0.35851339  0.23950274  0.07867915    -0.77100
O282        O  0.32904452  0.11680966  0.09233481    -0.82300
C283        C  0.27971490  0.15850976  0.04970709     0.98800
C284        C  0.30631933  0.10989861  0.11360512     1.04700
O285        O  0.26411733  0.15942848  0.07595227    -0.77900
C286        C  0.37295596  0.22571329  0.05573677     1.03000
Fe287      Fe  0.34969995  0.28815639  0.87080977     1.65800
Fe288      Fe  0.35350984  0.35431681  0.91188972     1.73200
Fe289      Fe  0.27634930  0.33631580  0.87214166     1.54400
O290        O  0.28536916  0.32054172  0.82687358    -0.81600
O291        O  0.31385236  0.35134135  0.94417449    -0.79900
O292        O  0.34251683  0.30156217  0.82580105    -0.84100
O293        O  0.30120051  0.26234525  0.86855118    -0.79000
O294        O  0.29088145  0.38057549  0.85783168    -0.80800
O295        O  0.37993011  0.31753262  0.93484941    -0.83500
C296        C  0.26802401  0.26624061  0.87671562     0.97300
C297        C  0.31331840  0.31042556  0.81213234     1.04700
O298        O  0.32631047  0.32642945  0.88474263    -1.12500
O299        O  0.39594995  0.35861405  0.88118144    -0.74900
O300        O  0.40218850  0.30799316  0.87051090    -0.78400
O301        O  0.25611114  0.29280569  0.88526756    -0.79100
C302        C  0.41544857  0.33555612  0.87271679     0.96200
O303        O  0.35662593  0.27349625  0.91577876    -0.77100
O304        O  0.32870423  0.39529424  0.89506037    -0.82300
C305        C  0.28022213  0.35773610  0.94118916     0.98800
C306        C  0.30512342  0.40180316  0.87431732     1.04700
O307        O  0.26299881  0.35425670  0.91574368    -0.77900
C308        C  0.37180191  0.28859736  0.93751480     1.03000
Fe309      Fe  0.64301665  0.22018577  0.12372819     1.65800
Fe310      Fe  0.63598014  0.15536990  0.08070470     1.73200
Fe311      Fe  0.71546251  0.17172192  0.11760939     1.54400
O312        O  0.73532631  0.21530136  0.10553195    -0.81600
O313        O  0.66058034  0.11325859  0.09589347    -0.79900
O314        O  0.69215737  0.24509916  0.12621270    -0.84100
O315        O  0.65160060  0.20442317  0.16780320    -0.79000
O316        O  0.72658585  0.15632002  0.07277559    -0.80800
O317        O  0.59502081  0.15116438  0.11298051    -0.83500
C318        C  0.68124736  0.19417938  0.17977781     0.97300
C319        C  0.72468585  0.24125200  0.11643170     1.04700
O320        O  0.66505701  0.18222795  0.10745214    -1.12500
O321        O  0.60990134  0.19377964  0.05959928    -0.74900
O322        O  0.63523204  0.23663982  0.07945984    -0.78400
O323        O  0.70858013  0.18514755  0.16365141    -0.79100
C324        C  0.61908253  0.22262105  0.05747978     0.96200
O325        O  0.58978940  0.20158516  0.12451312    -0.77100
O326        O  0.67380179  0.15805770  0.04678004    -0.82300
C327        C  0.68548596  0.10637279  0.11544623     0.98800
C328        C  0.70808071  0.15380247  0.04789069     1.04700
O329        O  0.70145880  0.12739034  0.13094719    -0.77900
C330        C  0.57603628  0.17422254  0.12228677     1.03000
Fe331      Fe  0.63773822  0.28477622  0.87166455     1.65800
Fe332      Fe  0.63520755  0.35089494  0.91340325     1.73200
Fe333      Fe  0.71119900  0.33299743  0.87254065     1.54400
O334        O  0.73148959  0.28951266  0.88511686    -0.81600
O335        O  0.66049345  0.39211777  0.89734331    -0.79900
O336        O  0.68590046  0.25880111  0.86976558    -0.84100
O337        O  0.64470105  0.29715698  0.82630623    -0.79000
O338        O  0.72586028  0.34975887  0.91607206    -0.80800
O339        O  0.59220745  0.35573699  0.88283992    -0.83500
C340        C  0.67361319  0.30655998  0.81278680     0.97300
C341        C  0.71914966  0.26288253  0.87754262     1.04700
O342        O  0.66150168  0.32307763  0.88552414    -1.12500
O343        O  0.60860163  0.31416243  0.93627554    -0.74900
O344        O  0.63104624  0.27011773  0.91667050    -0.78400
O345        O  0.70107034  0.31781958  0.82738815    -0.79100
C346        C  0.61657090  0.28514356  0.93873929     0.96200
O347        O  0.58568488  0.30532990  0.87089903    -0.77100
O348        O  0.67571930  0.34706292  0.94525002    -0.82300
C349        C  0.68412601  0.39868576  0.87674576     0.98800
C350        C  0.70966749  0.35230003  0.94196920     1.04700
O351        O  0.69671668  0.37761343  0.85911984    -0.77900
C352        C  0.57287478  0.33308238  0.87295444     1.03000
C353        C  0.60680151  0.22205126  0.00078899    -0.12200
C354        C  0.61225745  0.23959524  0.02782244     0.04800
C355        C  0.61472480  0.27261981  0.02515270    -0.07500
C356        C  0.61380600  0.28694640  0.99603494    -0.08300
C357        C  0.61079813  0.26918405  0.96894361    -0.02800
C358        C  0.60620343  0.23640035  0.97165159     0.04000
N359        N  0.60105005  0.21724606  0.94507551     0.66500
H360        H  0.60449940  0.19672042  0.00202433     0.15400
H361        H  0.61724348  0.31218204  0.99463575     0.15100
N362        N  0.61896342  0.29204509  0.05165011     0.74200
O363        O  0.62767818  0.20168658  0.93457273    -0.39200
O364        O  0.56893377  0.21098250  0.93620494    -0.39200
O365        O  0.65014110  0.30299927  0.05814500    -0.39900
O366        O  0.59089132  0.30315349  0.06462138    -0.39900
C367        C  0.47419893  0.31876203  0.84847958    -0.12200
C368        C  0.45541585  0.33989785  0.86754920     0.04800
C369        C  0.47599305  0.36207473  0.88446090    -0.07500
C370        C  0.51441120  0.36121001  0.88365492    -0.08300
C371        C  0.53318945  0.33827238  0.86667099    -0.02800
C372        C  0.51262000  0.31781948  0.84781730     0.04000
N373        N  0.53024873  0.29552441  0.82828465     0.66500
H374        H  0.45896343  0.30196338  0.83483696     0.15400
H375        H  0.52951930  0.37705925  0.89844081     0.15100
N376        N  0.45861739  0.38328998  0.90528101     0.74200
O377        O  0.53213495  0.26716327  0.83654175    -0.39200
O378        O  0.53652465  0.30269677  0.80059652    -0.39200
O379        O  0.45333848  0.37501768  0.93283293    -0.39900
O380        O  0.45485229  0.41173970  0.89782560    -0.39900
C381        C  0.47642594  0.19033273  0.14325072    -0.12200
C382        C  0.45798497  0.16944869  0.12355877     0.04800
C383        C  0.47896982  0.14701235  0.10736375    -0.07500
C384        C  0.51737718  0.14728869  0.10950467    -0.08300
C385        C  0.53588567  0.16990090  0.12715266    -0.02800
C386        C  0.51485656  0.19073022  0.14519559     0.04000
N387        N  0.53205591  0.21275751  0.16527941     0.66500
H388        H  0.46095798  0.20733407  0.15647523     0.15400
H389        H  0.53282854  0.13114085  0.09528031     0.15100
N390        N  0.46216790  0.12593841  0.08611253     0.74200
O391        O  0.53394585  0.24124562  0.15748954    -0.39200
O392        O  0.53862036  0.20503352  0.19280421    -0.39200
O393        O  0.45820819  0.13411759  0.05836304    -0.39900
O394        O  0.45762859  0.09759895  0.09360266    -0.39900
C395        C  0.37398327  0.29040378  0.99469722    -0.12200
C396        C  0.37834422  0.27287569  0.96761484     0.04800
C397        C  0.38586526  0.24052551  0.97016475    -0.07500
C398        C  0.38636948  0.22609462  0.99923918    -0.08300
C399        C  0.37910256  0.24318117  0.02629897    -0.02800
C400        C  0.37429012  0.27602377  0.02376924     0.04000
N401        N  0.36916008  0.29517572  0.05035096     0.66500
H402        H  0.36878606  0.31540440  0.99329014     0.15400
H403        H  0.39096539  0.20099099  0.00036070     0.15100
N404        N  0.39352159  0.22204800  0.94353276     0.74200
O405        O  0.39677294  0.30602016  0.06421121    -0.39200
O406        O  0.33769132  0.30579572  0.05646445    -0.39200
O407        O  0.42632356  0.21538999  0.93702795    -0.39900
O408        O  0.36782765  0.20779803  0.93007190    -0.39900
C409        C  0.29351278  0.45455869  0.89757385    -0.12200
C410        C  0.29019366  0.43441833  0.87201117     0.04800
C411        C  0.26625173  0.44346579  0.84787092    -0.07500
C412        C  0.24461500  0.47043587  0.85067122    -0.08300
C413        C  0.24623540  0.48927285  0.87699077    -0.02800
C414        C  0.27168078  0.48165187  0.90030442     0.04000
N415        N  0.27516719  0.00111596  0.92559772     0.66500
H416        H  0.31101679  0.44805355  0.91674937     0.15400
H417        H  0.22593422  0.47650060  0.83212265     0.15100
N418        N  0.26235652  0.42496073  0.82074433     0.74200
O419        O  0.25183750  0.99694348  0.94663024    -0.39200
O420        O  0.30335960  0.01731777  0.93096760    -0.39200
O421        O  0.23261882  0.41068464  0.81595986    -0.39900
O422        O  0.28479025  0.42852500  0.79894219    -0.39900
C423        C  0.21494557  0.23482801  0.89753403    -0.12200
C424        C  0.24263101  0.23884585  0.87538364     0.04800
C425        C  0.24613960  0.21609879  0.85203200    -0.07500
C426        C  0.22411668  0.18925785  0.85231555    -0.08300
C427        C  0.19817571  0.18379881  0.87568765    -0.02800
C428        C  0.19292376  0.20763455  0.89799303     0.04000
N429        N  0.16634210  0.20429394  0.92187998     0.66500
H430        H  0.21128740  0.25231074  0.91533741     0.15400
H431        H  0.22852496  0.17196233  0.83446045     0.15100
N432        N  0.27190670  0.21995660  0.82755642     0.74200
O433        O  0.17612403  0.19406713  0.94792010    -0.39200
O434        O  0.13538688  0.21723542  0.91892043    -0.39200
O435        O  0.30066699  0.20346453  0.82710806    -0.39900
O436        O  0.26295431  0.23558297  0.80399433    -0.39900
C437        C  0.23919691  0.11908532  0.02607944    -0.12200
C438        C  0.25927773  0.14690335  0.02288142     0.04800
C439        C  0.26460932  0.15978501  0.99332031    -0.07500
C440        C  0.25044497  0.14449105  0.96748637    -0.08300
C441        C  0.23047457  0.11660817  0.97066607    -0.02800
C442        C  0.22495005  0.10381893  0.00027817     0.04000
N443        N  0.20618723  0.07470987  0.00435429     0.66500
H444        H  0.23596158  0.10836757  0.04858528     0.15400
H445        H  0.25363402  0.15523089  0.94498721     0.15100
N446        N  0.28301605  0.18905789  0.98937382     0.74200
O447        O  0.17345719  0.07472800  0.01367570    -0.39200
O448        O  0.22422423  0.04942131  0.00449265    -0.39200
O449        O  0.31419203  0.18968245  0.97690008    -0.39900
O450        O  0.26557699  0.21433774  0.99318409    -0.39900
C451        C  0.22304157  0.36952809  0.96983976    -0.12200
C452        C  0.26125193  0.37096921  0.96821603     0.04800
C453        C  0.28084564  0.38631587  0.99204633    -0.07500
C454        C  0.26212771  0.39870127  0.01719882    -0.08300
C455        C  0.22396084  0.39672102  0.01917803    -0.02800
C456        C  0.20423171  0.38213787  0.99488227     0.04000
N457        N  0.16519611  0.37898555  0.99544523     0.66500
H458        H  0.20755096  0.35813165  0.95174020     0.15400
H459        H  0.27769725  0.41009773  0.03525126     0.15100
N460        N  0.31967417  0.39061341  0.99068416     0.74200
O461        O  0.14595643  0.39652007  0.97843891    -0.39200
O462        O  0.15113979  0.35431999  0.00630369    -0.39200
O463        O  0.33243999  0.41540577  0.97896904    -0.39900
O464        O  0.34037081  0.37312188  0.00651639    -0.39900
C465        C  0.11601060  0.47171058  0.00053399    -0.12200
C466        C  0.10833298  0.48897284  0.02713337     0.04800
C467        C  0.10021756  0.02047429  0.02357942    -0.07500
C468        C  0.10201742  0.03489624  0.99459650    -0.08300
C469        C  0.11235105  0.01793896  0.96819522    -0.02800
C470        C  0.11814041  0.48608893  0.97161522     0.04000
N471        N  0.12884112  0.46732102  0.94593683     0.66500
H472        H  0.12263404  0.44700591  0.00246644     0.15400
H473        H  0.09690044  0.05991027  0.99313985     0.15100
N474        N  0.09128126  0.03903700  0.04985039     0.74200
O475        O  0.16247467  0.46280583  0.94071731    -0.39200
O476        O  0.10678091  0.94982117  0.93179390    -0.39200
O477        O  0.11383336  0.55663816  0.06307609    -0.39900
O478        O  0.05809696  0.04319610  0.05693165    -0.39900
C479        C  0.22286763  0.31987064  0.14305961    -0.12200
C480        C  0.20195214  0.32729181  0.11671641     0.04800
C481        C  0.20248326  0.30591993  0.09179503    -0.07500
C482        C  0.22441285  0.27881961  0.09326943    -0.08300
C483        C  0.24678450  0.27261156  0.11882755    -0.02800
C484        C  0.24525740  0.29309497  0.14420713     0.04000
N485        N  0.26612356  0.28693924  0.17144207     0.66500
H486        H  0.22303721  0.33564105  0.16258561     0.15400
H487        H  0.22529450  0.26327578  0.07357145     0.15100
N488        N  0.18395913  0.31270707  0.06359283     0.74200
O489        O  0.29616922  0.30093125  0.17561625    -0.39200
O490        O  0.25148084  0.27236607  0.19353743    -0.39200
O491        O  0.20265045  0.31898280  0.03995710    -0.39900
O492        O  0.15074170  0.30506892  0.06059296    -0.39900
C493        C  0.26471281  0.07195866  0.13983217    -0.12200
C494        C  0.28947069  0.07791195  0.11567936     0.04800
C495        C  0.29239706  0.05524789  0.09199131    -0.07500
C496        C  0.26953341  0.02863978  0.09213199    -0.08300
C497        C  0.24313931  0.02408865  0.11525476    -0.02800
C498        C  0.24174987  0.04569193  0.13976253     0.04000
N499        N  0.21753580  0.04110252  0.16517769     0.66500
H500        H  0.26210174  0.08840104  0.15868877     0.15400
H501        H  0.27178511  0.51133602  0.07600443     0.15100
N502        N  0.31724806  0.05934738  0.06693781     0.74200
O503        O  0.22799447  0.02469258  0.18777465    -0.39200
O504        O  0.18964100  0.05842588  0.16787331    -0.39200
O505        O  0.34689563  0.04405664  0.06660312    -0.39900
O506        O  0.30646383  0.07294082  0.04271738    -0.39900
C507        C  0.01401270  0.10943814  0.88899026    -0.12200
C508        C  0.03358636  0.08841921  0.87035432     0.04800
C509        C  0.01373925  0.06827797  0.85063129    -0.07500
C510        C  0.97531227  0.06820555  0.85122873    -0.08300
C511        C  0.95580891  0.08776136  0.87132582    -0.02800
C512        C  0.97558180  0.10890386  0.89009794     0.04000
N513        N  0.95751130  0.12710312  0.91315970     0.66500
H514        H  0.02861036  0.12450752  0.90487831     0.15400
H515        H  0.96064752  0.05195820  0.83654868     0.15100
N516        N  0.03216525  0.04714051  0.83038915     0.74200
O517        O  0.94864988  0.11431098  0.93830385    -0.39200
O518        O  0.95691769  0.15660935  0.91090612    -0.39200
O519        O  0.03296699  0.01822866  0.83667706    -0.39900
O520        O  0.04108147  0.05629660  0.80379924    -0.39900
C521        C  0.70436431  0.12889459  0.99629692    -0.12200
C522        C  0.72595937  0.14352741  0.01913418     0.04800
C523        C  0.76401110  0.14591187  0.01468142    -0.07500
C524        C  0.77974511  0.13318680  0.98833342    -0.08300
C525        C  0.75845920  0.11743208  0.96616378    -0.02800
C526        C  0.72031419  0.11568218  0.97009366     0.04000
N527        N  0.69767944  0.09943863  0.94850871     0.66500
H528        H  0.67503477  0.12645716  0.99933015     0.15400
H529        H  0.80903504  0.13589917  0.98520039     0.15100
N530        N  0.78708306  0.16154338  0.03635790     0.74200
O531        O  0.69942316  0.06994368  0.94651928    -0.39200
O532        O  0.67703791  0.11466023  0.93051633    -0.39200
O533        O  0.80810531  0.14566146  0.05347619    -0.39900
O534        O  0.79130986  0.19085267  0.03445284    -0.39900
C535        C  0.79312096  0.20198681  0.89526603    -0.12200
C536        C  0.78849615  0.18100856  0.87050303     0.04800
C537        C  0.76311042  0.18922639  0.84711839    -0.07500
C538        C  0.74131011  0.21602875  0.85005861    -0.08300
C539        C  0.74440373  0.23574749  0.87559602    -0.02800
C540        C  0.77147843  0.22919306  0.89789546     0.04000
N541        N  0.77525914  0.24842903  0.92456648     0.66500
H542        H  0.81203592  0.19637655  0.91375597     0.15400
H543        H  0.72157513  0.22142870  0.83208167     0.15100
N544        N  0.75884482  0.17074111  0.82006830     0.74200
O545        O  0.75618890  0.24267406  0.94811595    -0.39200
O546        O  0.80171249  0.26735489  0.92645473    -0.39200
O547        O  0.73181194  0.15241385  0.81806611    -0.39900
O548        O  0.77504216  0.17933260  0.79584234    -0.39900
C549        C  0.71980832  0.48026611  0.89891849    -0.12200
C550        C  0.74498863  0.48599087  0.87516989     0.04800
C551        C  0.74648098  0.46477147  0.85033330    -0.07500
C552        C  0.72439096  0.43786233  0.85028372    -0.08300
C553        C  0.70062287  0.43089349  0.87488015    -0.02800
C554        C  0.69817780  0.45290377  0.89928307     0.04000
N555        N  0.67612831  0.44685210  0.92578624     0.66500
H556        H  0.71757041  0.99632460  0.91785937     0.15400
H557        H  0.72689809  0.42174253  0.83115652     0.15100
N558        N  0.77014418  0.47037620  0.82471173     0.74200
O559        O  0.68985414  0.43233735  0.94840655    -0.39200
O560        O  0.64616183  0.46127836  0.92907191    -0.39200
O561        O  0.79947461  0.45487256  0.82211290    -0.39900
O562        O  0.75887178  0.48672683  0.80235012    -0.39900
C563        C  0.01531208  0.44034095  0.14453880    -0.12200
C564        C  0.03456074  0.41691539  0.12867944     0.04800
C565        C  0.01454909  0.39166369  0.11596531    -0.07500
C566        C  0.97607263  0.39249017  0.11602945    -0.08300
C567        C  0.95690232  0.41808191  0.12858410    -0.02800
C568        C  0.97703029  0.44115755  0.14463932     0.04000
N569        N  0.95920550  0.46631867  0.16028905     0.66500
H570        H  0.03004277  0.45929937  0.15559989     0.15400
H571        H  0.96133255  0.37409119  0.10412537     0.15100
N572        N  0.03254972  0.36640585  0.10055977     0.74200
O573        O  0.95187101  0.46330161  0.18849661    -0.39200
O574        O  0.95883349  0.49330741  0.14827143    -0.39200
O575        O  0.03692776  0.34056959  0.11434077    -0.39900
O576        O  0.03768222  0.36793804  0.07188038    -0.39900
C577        C  0.87445515  0.01892249  0.02412471    -0.12200
C578        C  0.88088272  0.48824127  0.02595721     0.04800
C579        C  0.88813218  0.47310113  0.99760097    -0.07500
C580        C  0.88606222  0.49006906  0.96990649    -0.08300
C581        C  0.87705023  0.02027614  0.96812766    -0.02800
C582        C  0.87321061  0.03592861  0.99656789     0.04000
N583        N  0.86431121  0.06852574  0.99797553     0.66500
H584        H  0.86943435  0.03138447  0.04542824     0.15400
H585        H  0.88996306  0.47774950  0.94835847     0.15100
N586        N  0.89669333  0.44041654  0.99625676     0.74200
O587        O  0.83163142  0.07648492  0.00338715    -0.39200
O588        O  0.88965141  0.08821116  0.00197478    -0.39200
O589        O  0.87378718  0.42156100  0.98490347    -0.39900
O590        O  0.92939256  0.43158724  0.00032212    -0.39900
C591        C  0.77880527  0.39296705  0.99342912    -0.12200
C592        C  0.76217859  0.39007700  0.02243920     0.04800
C593        C  0.72871657  0.37365656  0.02472919    -0.07500
C594        C  0.71300900  0.36074286  0.99838222    -0.08300
C595        C  0.72978534  0.36352331  0.96937970    -0.02800
C596        C  0.76327147  0.37989175  0.96710183     0.04000
N597        N  0.78139805  0.38417966  0.93826614     0.66500
H598        H  0.80465857  0.40567631  0.99099142     0.15400
H599        H  0.68714750  0.34820364  0.00083206     0.15100
N600        N  0.71084158  0.36898763  0.05362962     0.74200
O601        O  0.77519906  0.40858228  0.92257229    -0.39200
O602        O  0.80820569  0.36681306  0.93140360    -0.39200
O603        O  0.68115082  0.38311814  0.05917195    -0.39900
O604        O  0.72119441  0.34702365  0.07115842    -0.39900
C605        C  0.72669466  0.06789475  0.14145567    -0.12200
C606        C  0.69992367  0.07358259  0.11872203     0.04800
C607        C  0.69366379  0.04993638  0.09649009    -0.07500
C608        C  0.71577198  0.02271936  0.09614134    -0.08300
C609        C  0.74443129  0.01855839  0.11751238    -0.02800
C610        C  0.74893320  0.04117364  0.14086127     0.04000
N611        N  0.77207243  0.53501269  0.16719660     0.66500
H612        H  0.73202243  0.08517941  0.15910795     0.15400
H613        H  0.71138102  0.00535225  0.07836679     0.15100
N614        N  0.66641406  0.05388126  0.07313054     0.74200
O615        O  0.80682496  0.05131616  0.16104392    -0.39200
O616        O  0.76217993  0.52129199  0.19157115    -0.39200
O617        O  0.67575557  0.06088157  0.04601832    -0.39900
O618        O  0.63289523  0.05106272  0.07972910    -0.39900
C619        C  0.77192153  0.31561817  0.14325843    -0.12200
C620        C  0.79572165  0.32225514  0.11864830     0.04800
C621        C  0.79941228  0.29954353  0.09506594    -0.07500
C622        C  0.77711315  0.27262749  0.09522149    -0.08300
C623        C  0.75090621  0.26781801  0.11841745    -0.02800
C624        C  0.74970716  0.28893988  0.14331544     0.04000
N625        N  0.72601848  0.28363731  0.16898172     0.66500
H626        H  0.76917494  0.33200608  0.16214646     0.15400
H627        H  0.77912195  0.25618783  0.07631138     0.15100
N628        N  0.82397159  0.30415769  0.06987477     0.74200
O629        O  0.73658155  0.26618145  0.19077774    -0.39200
O630        O  0.69785207  0.30049446  0.17239284    -0.39200
O631        O  0.85492327  0.29088159  0.07024326    -0.39900
O632        O  0.81216057  0.31596969  0.04509458    -0.39900
C633        C  0.65794293  0.27941317  0.73035441    -0.12200
C634        C  0.67809340  0.30155059  0.71346883     0.04800
C635        C  0.69737341  0.32512261  0.72957705    -0.07500
C636        C  0.69596490  0.32617879  0.76185095    -0.08300
C637        C  0.67544055  0.30419751  0.77868965    -0.02800
C638        C  0.65670039  0.28034208  0.76253780     0.04000
N639        N  0.63774126  0.25591485  0.77848631     0.66500
H640        H  0.64350483  0.26078988  0.71850554     0.15400
H641        H  0.71035136  0.34479045  0.77375377     0.15100
N642        N  0.71688352  0.34914930  0.71351861     0.74200
O643        O  0.60320367  0.25654165  0.78000657    -0.39200
O644        O  0.65471861  0.23116702  0.78580750    -0.39200
O645        O  0.70094600  0.37468137  0.70723887    -0.39900
O646        O  0.75126932  0.34725535  0.71094628    -0.39900
C647        C  0.66291576  0.21529480  0.23052402    -0.12200
C648        C  0.68385402  0.19363286  0.21385489     0.04800
C649        C  0.70599416  0.17198927  0.23017177    -0.07500
C650        C  0.70562570  0.17169129  0.26248125    -0.08300
C651        C  0.68338568  0.19256739  0.27912734    -0.02800
C652        C  0.66254319  0.21509060  0.26265314     0.04000
N653        N  0.64132457  0.23847793  0.27799710     0.66500
H654        H  0.64651636  0.23271730  0.21851150     0.15400
H655        H  0.72190134  0.15423768  0.27454855     0.15100
N656        N  0.72730721  0.14896153  0.21441601     0.74200
O657        O  0.65343955  0.26612718  0.27928135    -0.39200
O658        O  0.60752441  0.23386794  0.28197024    -0.39200
O659        O  0.76160817  0.15223588  0.21254082    -0.39900
O660        O  0.71306237  0.12288263  0.20783546    -0.39900
C661        C  0.60269180  0.25051057  0.47045173    -0.12200
C662        C  0.61615177  0.21965621  0.46922849     0.04800
C663        C  0.62648603  0.20487246  0.49699965    -0.07500
C664        C  0.62624814  0.22155544  0.52462086    -0.08300
C665        C  0.61480360  0.25294868  0.52578053    -0.02800
C666        C  0.60082818  0.26684933  0.49848050     0.04000
N667        N  0.58398278  0.29713395  0.49883294     0.66500
H668        H  0.59355187  0.26201775  0.44950540     0.15400
H669        H  0.63631956  0.20988470  0.54517408     0.15100
N670        N  0.63902713  0.17325250  0.49761311     0.74200
O671        O  0.60094810  0.32057823  0.48832322    -0.39200
O672        O  0.55020473  0.29941987  0.50468013    -0.39200
O673        O  0.67300993  0.16805398  0.49966673    -0.39900
O674        O  0.61681558  0.15225719  0.50594494    -0.39900
C675        C  0.34043194  0.29105716  0.76321161    -0.12200
C676        C  0.31230893  0.30789868  0.77781524     0.04800
C677        C  0.28490994  0.32188706  0.75914482    -0.07500
C678        C  0.28644903  0.31897423  0.72692798    -0.08300
C679        C  0.31501798  0.30249835  0.71238574    -0.02800
C680        C  0.34217795  0.28838578  0.73120975     0.04000
N681        N  0.37270897  0.27206130  0.71841759     0.66500
H682        H  0.36187085  0.27990765  0.77668803     0.15400
H683        H  0.26540205  0.33036478  0.71321746     0.15100
N684        N  0.25628995  0.34043941  0.77215778     0.74200
O685        O  0.40303466  0.28603802  0.71632679    -0.39200
O686        O  0.37178995  0.24255964  0.71638170    -0.39200
O687        O  0.25702319  0.36979231  0.76854877    -0.39900
O688        O  0.22674639  0.32743275  0.78016878    -0.39900
C689        C  0.47999308  0.35075674  0.60930379    -0.12200
C690        C  0.46128027  0.32703094  0.62543794     0.04800
C691        C  0.48220702  0.30474292  0.64215734    -0.07500
C692        C  0.52054942  0.30543856  0.64075699    -0.08300
C693        C  0.53911665  0.32730924  0.62229119    -0.02800
C694        C  0.51839336  0.35081751  0.60715537     0.04000
N695        N  0.53537468  0.37291471  0.58692597     0.66500
H696        H  0.46469729  0.36797405  0.59606796     0.15400
H697        H  0.53584418  0.28751832  0.65306998     0.15100
N698        N  0.46534937  0.28075847  0.66029003     0.74200
O699        O  0.54253970  0.36506780  0.55959992    -0.39200
O700        O  0.53689288  0.40144501  0.59443304    -0.39200
O701        O  0.45608937  0.25543386  0.64750540    -0.39900
O702        O  0.47042984  0.28089184  0.68901495    -0.39900
C703        C  0.34818915  0.18553814  0.26361834    -0.12200
C704        C  0.31563113  0.19220054  0.27956321     0.04800
C705        C  0.28357755  0.19905647  0.26252525    -0.07500
C706        C  0.28482564  0.19958389  0.23024207    -0.08300
C707        C  0.31763092  0.19351899  0.21437515    -0.02800
C708        C  0.34940439  0.18591044  0.23144389     0.04000
N709        N  0.38272706  0.17711291  0.21646908     0.66500
H710        H  0.37293353  0.17958148  0.27624201     0.15400
H711        H  0.26017646  0.20563399  0.21754319     0.15100
N712        N  0.25013128  0.20729480  0.27757506     0.74200
O713        O  0.40880736  0.19644273  0.21481239    -0.39200
O714        O  0.38840563  0.14866860  0.21006188    -0.39200
O715        O  0.24272682  0.23581320  0.28221933    -0.39900
O716        O  0.22536298  0.18693871  0.28082993    -0.39900
C717        C  0.47793658  0.18767237  0.35072171    -0.12200
C718        C  0.45869398  0.16246581  0.36394714     0.04800
C719        C  0.47886729  0.13557760  0.37299054    -0.07500
C720        C  0.51737141  0.13602012  0.37212334    -0.08300
C721        C  0.53663697  0.16275221  0.36216005    -0.02800
C722        C  0.51629449  0.18799036  0.34959032     0.04000
N723        N  0.53401643  0.21441743  0.33592419     0.66500
H724        H  0.46321830  0.20808061  0.34226554     0.15400
H725        H  0.53217916  0.11594434  0.38120330     0.15100
N726        N  0.46105216  0.10837760  0.38501380     0.74200
O727        O  0.54026730  0.21424567  0.30738528    -0.39200
O728        O  0.53533196  0.24001840  0.35037908    -0.39200
O729        O  0.45592034  0.08504385  0.36775236    -0.39900
O730        O  0.45725488  0.10532462  0.41372630    -0.39900
C731        C  0.38036749  0.23076784  0.52355485    -0.12200
C732        C  0.38463283  0.26343853  0.52420441     0.04800
C733        C  0.39149598  0.27925392  0.49605701    -0.07500
C734        C  0.39092088  0.26258180  0.46817544    -0.08300
C735        C  0.38421977  0.23013132  0.46756729    -0.02800
C736        C  0.38000359  0.21412544  0.49589232     0.04000
N737        N  0.37079931  0.18161489  0.49709707     0.66500
H738        H  0.37540283  0.21790797  0.54470458     0.15400
H739        H  0.39450109  0.27533223  0.44676392     0.15100
N740        N  0.39721514  0.31238165  0.49503698     0.74200
O741        O  0.39591159  0.16134022  0.49499061    -0.39200
O742        O  0.34028403  0.17377799  0.50833045    -0.39200
O743        O  0.42949653  0.32296944  0.49461785    -0.39900
O744        O  0.37073632  0.33040253  0.48875680    -0.39900
C745        C  0.20764340  0.05581607  0.73100314    -0.12200
C746        C  0.17439149  0.05508342  0.71463681     0.04800
C747        C  0.14113908  0.05614063  0.73134349    -0.07500
C748        C  0.14184939  0.05832589  0.76347053    -0.08300
C749        C  0.17511011  0.05913532  0.77984587    -0.02800
C750        C  0.20830536  0.05734016  0.76321080     0.04000
N751        N  0.24285156  0.05506312  0.77862497     0.66500
H752        H  0.23347823  0.05423568  0.71878813     0.15400
H753        H  0.11597115  0.05959108  0.77565529     0.15100
N754        N  0.10632694  0.05565894  0.71615530     0.74200
O755        O  0.25358709  0.02877788  0.78863096    -0.39200
O756        O  0.26521447  0.07755254  0.77709363    -0.39200
O757        O  0.08769507  0.03074647  0.71604347    -0.39900
O758        O  0.09152450  0.08111675  0.70792053    -0.39900
C759        C  0.27030467  0.43018599  0.64547743    -0.12200
C760        C  0.29598303  0.42484421  0.62188307     0.04800
C761        C  0.30116660  0.44881390  0.59962010    -0.07500
C762        C  0.27904152  0.47589987  0.60006357    -0.08300
C763        C  0.25143160  0.47977201  0.62221648    -0.02800
C764        C  0.24812117  0.45704672  0.64574181     0.04000
N765        N  0.22216427  0.46077151  0.67008385     0.66500
H766        H  0.26600095  0.41260112  0.66317281     0.15400
H767        H  0.27944087  0.99262233  0.57852936     0.15100
N768        N  0.32686777  0.44521787  0.57511412     0.74200
O769        O  0.19219803  0.44605505  0.66916092    -0.39200
O770        O  0.23186405  0.47396267  0.69473717    -0.39200
O771        O  0.31535627  0.44039652  0.54814610    -0.39900
O772        O  0.35975774  0.45335661  0.57917972    -0.39900
C773        C  0.20347806  0.19184724  0.59046115    -0.12200
C774        C  0.20184128  0.17397466  0.61768582     0.04800
C775        C  0.22167370  0.18468075  0.64360345    -0.07500
C776        C  0.24473759  0.21093305  0.64107248    -0.08300
C777        C  0.24798739  0.22767197  0.61330724    -0.02800
C778        C  0.22631418  0.21830191  0.58796399     0.04000
N779        N  0.22938117  0.23352594  0.55872479     0.66500
H780        H  0.18917581  0.18384824  0.57005110     0.15400
H781        H  0.26012297  0.21844503  0.66111607     0.15100
N782        N  0.21848833  0.16929226  0.67275131     0.74200
O783        O  0.25965758  0.23297500  0.54469949    -0.39200
O784        O  0.20062194  0.24072124  0.54409434    -0.39200
O785        O  0.24531339  0.15408215  0.68355645    -0.39900
O786        O  0.19129762  0.17514217  0.68972899    -0.39900
C787        C  0.21211606  0.12220978  0.50116276    -0.12200
C788        C  0.23381115  0.10844119  0.52444461     0.04800
C789        C  0.27212586  0.10857804  0.52128414    -0.07500
C790        C  0.28774526  0.12121745  0.49469637    -0.08300
C791        C  0.26608953  0.13523103  0.47144573    -0.02800
C792        C  0.22775789  0.13557534  0.47497758     0.04000
N793        N  0.20420604  0.14970950  0.45258028     0.66500
H794        H  0.18250858  0.12306499  0.50336682     0.15400
H795        H  0.31723907  0.11953804  0.49215692     0.15100
N796        N  0.29556188  0.09565853  0.54448413     0.74200
O797        O  0.19127665  0.13312909  0.43115786    -0.39200
O798        O  0.18977928  0.17595422  0.45830854    -0.39200
O799        O  0.30986406  0.06901394  0.54049472    -0.39900
O800        O  0.30763550  0.11319594  0.56552233    -0.39900
C801        C  0.14550643  0.43785353  0.26258756    -0.12200
C802        C  0.17864831  0.44257009  0.27834452     0.04800
C803        C  0.21114909  0.44678004  0.26109418    -0.07500
C804        C  0.20962046  0.44713516  0.22882753    -0.08300
C805        C  0.17625846  0.44305767  0.21318865    -0.02800
C806        C  0.14407484  0.43765192  0.23048131     0.04000
N807        N  0.10990971  0.43063576  0.21585745     0.66500
H808        H  0.12040161  0.43369525  0.27529103     0.15400
H809        H  0.23459993  0.45133291  0.21597671     0.15100
N810        N  0.24569118  0.45182241  0.27581941     0.74200
O811        O  0.10311408  0.40280282  0.20790123    -0.39200
O812        O  0.08432960  0.45060373  0.21615867    -0.39200
O813        O  0.26698673  0.42886660  0.28014158    -0.39900
O814        O  0.25808416  0.47933247  0.27797157    -0.39900
C815        C  0.28564963  0.38330725  0.50201081    -0.12200
C816        C  0.26832624  0.36018505  0.52008640     0.04800
C817        C  0.23291200  0.35017110  0.51218894    -0.07500
C818        C  0.21492628  0.36391216  0.48716640    -0.08300
C819        C  0.23206468  0.38724091  0.46933445    -0.02800
C820        C  0.26761627  0.39710498  0.47694581     0.04000
N821        N  0.28476930  0.42221829  0.46052366     0.66500
H822        H  0.31281827  0.39149662  0.50800059     0.15400
H823        H  0.18798639  0.35536448  0.48085779     0.15100
N824        N  0.21629413  0.32432190  0.52777301     0.74200
O825        O  0.27113832  0.44944370  0.46132326    -0.39200
O826        O  0.31257680  0.41695299  0.44408970    -0.39200
O827        O  0.18678133  0.32800304  0.54244042    -0.39900
O828        O  0.23170655  0.29782481  0.52740437    -0.39900
C829        C  0.12063489  0.46289481  0.49414608    -0.12200
C830        C  0.11471399  0.48066350  0.46730088     0.04800
C831        C  0.11496105  0.01310938  0.46832500    -0.07500
C832        C  0.11532989  0.02724826  0.49744911    -0.08300
C833        C  0.11827455  0.00931944  0.52461718    -0.02800
C834        C  0.12259827  0.47706924  0.52318651     0.04000
N835        N  0.13046254  0.45772067  0.54928977     0.66500
H836        H  0.12575186  0.43789080  0.49250182     0.15400
H837        H  0.11501474  0.05264585  0.49862022     0.15100
N838        N  0.11348010  0.03276349  0.44164043     0.74200
O839        O  0.10457361  0.44396624  0.56299588    -0.39200
O840        O  0.16312609  0.44952247  0.55466536    -0.39200
O841        O  0.08295461  0.04326712  0.43253569    -0.39900
O842        O  0.12477468  0.54921580  0.43241250    -0.39900
C843        C  0.25173496  0.28646534  0.35053368    -0.12200
C844        C  0.24872197  0.26639074  0.37606720     0.04800
C845        C  0.22188447  0.27298410  0.39846966    -0.07500
C846        C  0.20043704  0.30027334  0.39603672    -0.08300
C847        C  0.20488816  0.32141733  0.37137161    -0.02800
C848        C  0.22992292  0.31342657  0.34774446     0.04000
N849        N  0.23385251  0.33249624  0.32082501     0.66500
H850        H  0.27125291  0.28117372  0.33246557     0.15400
H851        H  0.18175260  0.30578884  0.41463472     0.15100
N852        N  0.21763421  0.25335022  0.42487770     0.74200
O853        O  0.26147857  0.35005949  0.31809198    -0.39200
O854        O  0.21418611  0.32696531  0.29755361    -0.39200
O855        O  0.23459529  0.25990899  0.44935721    -0.39900
O856        O  0.19138144  0.23416545  0.42576220    -0.39900
C857        C  0.26754836  0.06358806  0.34869235    -0.12200
C858        C  0.29091523  0.07010639  0.37367382     0.04800
C859        C  0.29320092  0.04772686  0.39784482    -0.07500
C860        C  0.27189596  0.02028153  0.39683718    -0.08300
C861        C  0.24710348  0.01491772  0.37271011    -0.02800
C862        C  0.24551147  0.03670437  0.34820672     0.04000
N863        N  0.22142855  0.03200419  0.32264478     0.66500
H864        H  0.26504825  0.08019840  0.32985519     0.15400
H865        H  0.28109279  0.50136504  0.41078171     0.15100
N866        N  0.31421922  0.05372156  0.42495489     0.74200
O867        O  0.19065177  0.04557509  0.32213109    -0.39200
O868        O  0.23356956  0.01955079  0.29839995    -0.39200
O869        O  0.29857479  0.06505794  0.44829804    -0.39900
O870        O  0.34578154  0.04187472  0.42769232    -0.39900
C871        C  0.79218498  0.06680571  0.72661315    -0.12200
C872        C  0.81721526  0.04625260  0.71268789     0.04800
C873        C  0.84076568  0.02830445  0.73169998    -0.07500
C874        C  0.83989702  0.03221808  0.76366322    -0.08300
C875        C  0.81533202  0.05325707  0.77760456    -0.02800
C876        C  0.79087215  0.07028463  0.75861312     0.04000
N877        N  0.76614132  0.09281284  0.77108684     0.66500
H878        H  0.77400933  0.08104787  0.71254468     0.15400
H879        H  0.85826918  0.01814095  0.77770309     0.15100
N880        N  0.86481371  0.00516343  0.71913573     0.74200
O881        O  0.77400737  0.12148732  0.76878306    -0.39200
O882        O  0.73344151  0.08495083  0.77650480    -0.39200
O883        O  0.89903198  0.00894346  0.72099516    -0.39900
O884        O  0.85229156  0.97852605  0.71224375    -0.39900
C885        C  0.97871086  0.10120900  0.61159974    -0.12200
C886        C  0.96101940  0.07642459  0.62694067     0.04800
C887        C  0.98251084  0.05455190  0.64346987    -0.07500
C888        C  0.02071325  0.05603711  0.64198075    -0.08300
C889        C  0.03839545  0.07880129  0.62394932    -0.02800
C890        C  0.01702392  0.10245593  0.60971555     0.04000
N891        N  0.03332020  0.12595927  0.59064085     0.66500
H892        H  0.96280758  0.11832529  0.59874991     0.15400
H893        H  0.03660512  0.03822621  0.65391207     0.15100
N894        N  0.96608329  0.03016261  0.66129426     0.74200
O895        O  0.03864981  0.12036779  0.56249323    -0.39200
O896        O  0.03546314  0.15379307  0.60024673    -0.39200
O897        O  0.96486307  0.00267903  0.65064146    -0.39900
O898        O  0.96116713  0.03440534  0.68970224    -0.39900
C899        C  0.76561460  0.13370794  0.47399482    -0.12200
C900        C  0.73037802  0.12238255  0.46785127     0.04800
C901        C  0.71416969  0.10080608  0.48883497    -0.07500
C902        C  0.73298254  0.09205850  0.51551311    -0.08300
C903        C  0.76809132  0.10330756  0.52145149    -0.02800
C904        C  0.78460981  0.12431360  0.50036884     0.04000
N905        N  0.82021817  0.13712189  0.50581614     0.66500
H906        H  0.77845726  0.15025569  0.45838542     0.15400
H907        H  0.72040595  0.07548664  0.53126484     0.15100
N908        N  0.68011083  0.08545745  0.48263251     0.74200
O909        O  0.84778250  0.12473867  0.49317845    -0.39200
O910        O  0.82307351  0.16408535  0.51744432    -0.39200
O911        O  0.67975183  0.05589311  0.48171818    -0.39900
O912        O  0.65051950  0.09959655  0.48825234    -0.39900
C913        C  0.79745524  0.18974522  0.59601650    -0.12200
C914        C  0.79516388  0.16900547  0.62124059     0.04800
C915        C  0.77201558  0.17732647  0.64606398    -0.07500
C916        C  0.74969243  0.20411270  0.64403922    -0.08300
C917        C  0.75037464  0.22365646  0.61800234    -0.02800
C918        C  0.77540368  0.21679425  0.59420994     0.04000
N919        N  0.77634541  0.23541617  0.56682083     0.66500
H920        H  0.81457723  0.18387600  0.57650613     0.15400
H921        H  0.73157885  0.20966525  0.66304061     0.15100
N922        N  0.77064434  0.15873720  0.67347855     0.74200
O923        O  0.80227450  0.25450243  0.56266184    -0.39200
O924        O  0.75523135  0.22886081  0.54472764    -0.39200
O925        O  0.79314344  0.16403603  0.69492589    -0.39900
O926        O  0.74308840  0.14166877  0.67863673    -0.39900
C927        C  0.73784808  0.41968884  0.63463751    -0.12200
C928        C  0.70784789  0.41723367  0.61436134     0.04800
C929        C  0.70022137  0.44298093  0.59469949    -0.07500
C930        C  0.72286123  0.46977707  0.59531563    -0.08300
C931        C  0.75387862  0.47128573  0.61463997    -0.02800
C932        C  0.76087641  0.44578056  0.63465665     0.04000
N933        N  0.79149415  0.44569144  0.65523895     0.66500
H934        H  0.74480107  0.40052295  0.65004305     0.15400
H935        H  0.71854756  0.98755930  0.57600308     0.15100
N936        N  0.67018716  0.44219784  0.57358541     0.74200
O937        O  0.78719644  0.45463566  0.68264893    -0.39200
O938        O  0.82023157  0.43094067  0.64799137    -0.39200
O939        O  0.64035112  0.45533979  0.58064720    -0.39900
O940        O  0.67564644  0.43394840  0.54610240    -0.39900
C941        C  0.79705870  0.41768084  0.22854207    -0.12200
C942        C  0.81612233  0.44222757  0.21401176     0.04800
C943        C  0.83540900  0.46394905  0.23236313    -0.07500
C944        C  0.83598028  0.46043562  0.26431101    -0.08300
C945        C  0.81736906  0.43574597  0.27887196    -0.02800
C946        C  0.79752304  0.41425876  0.26065861     0.04000
N947        N  0.77898741  0.38815459  0.27421040     0.66500
H948        H  0.78235831  0.40057624  0.21486351     0.15400
H949        H  0.85061543  0.47767793  0.27788189     0.15100
N950        N  0.85325730  0.49056923  0.21915749     0.74200
O951        O  0.74485006  0.38959572  0.27867059    -0.39200
O952        O  0.79515246  0.36203076  0.27621064    -0.39200
O953        O  0.83710660  0.51675213  0.21933674    -0.39900
O954        O  0.88743954  0.48973519  0.21492408    -0.39900
C955        C  0.97905208  0.38675047  0.38125247    -0.12200
C956        C  0.95903587  0.41066753  0.36652604     0.04800
C957        C  0.97844418  0.43344174  0.34930330    -0.07500
C958        C  0.01682577  0.43380932  0.34984292    -0.08300
C959        C  0.03681600  0.41165570  0.36699317    -0.02800
C960        C  0.01751278  0.38708884  0.38176499     0.04000
N961        N  0.03616549  0.36413113  0.40004525     0.66500
H962        H  0.96488578  0.36897589  0.39456035     0.15400
H963        H  0.03103673  0.45236640  0.33763315     0.15100
N964        N  0.95966040  0.45699740  0.33185033     0.74200
O965        O  0.04279551  0.36972565  0.42800952    -0.39200
O966        O  0.03993708  0.33659788  0.38995819    -0.39200
O967        O  0.95942530  0.48499151  0.34120217    -0.39900
O968        O  0.94955374  0.45106210  0.30470242    -0.39900
C969        C  0.88048149  0.02678506  0.49680285    -0.12200
C970        C  0.88429607  0.00907210  0.52398543     0.04800
C971        C  0.88936462  0.97632821  0.52144995    -0.07500
C972        C  0.89074399  0.46305621  0.49356972    -0.08300
C973        C  0.88262417  0.48037581  0.46673466    -0.02800
C974        C  0.87936969  0.51335448  0.46927636     0.04000
N975        N  0.87389727  0.53268754  0.44274439     0.66500
H976        H  0.87698107  0.05201018  0.49807189     0.15400
H977        H  0.89450491  0.43787355  0.49234943     0.15100
N978        N  0.89578594  0.95729268  0.54806444     0.74200
O979        O  0.84210360  0.54241621  0.43625940    -0.39200
O980        O  0.90126371  0.54491848  0.42968266    -0.39200
O981        O  0.87558487  0.44260213  0.56144787    -0.39900
O982        O  0.92825639  0.95042828  0.55559808    -0.39900
C983        C  0.74056349  0.35602402  0.46622136    -0.12200
C984        C  0.76483831  0.38107556  0.47056009     0.04800
C985        C  0.77461449  0.38992314  0.50074659    -0.07500
C986        C  0.76006069  0.37376208  0.52584699    -0.08300
C987        C  0.73591697  0.34864036  0.52151586    -0.02800
C988        C  0.72656091  0.33940462  0.49132214     0.04000
N989        N  0.70426265  0.31240498  0.48575980     0.66500
H990        H  0.73413531  0.34804532  0.44315518     0.15400
H991        H  0.76662210  0.38175137  0.54888534     0.15100
N992        N  0.79878767  0.41560619  0.50634551     0.74200
O993        O  0.71619824  0.28554894  0.49292851    -0.39200
O994        O  0.67638686  0.31469501  0.46865741    -0.39200
O995        O  0.78560541  0.44256292  0.51098034    -0.39900
O996        O  0.83172805  0.41010644  0.51344237    -0.39900
C997        C  0.71146325  0.00903578  0.38354946    -0.12200
C998        C  0.74370008  0.00665775  0.36600862     0.04800
C999        C  0.75065961  0.03020338  0.34377633    -0.07500
C1000       C  0.72870282  0.05718548  0.34252254    -0.08300
C1001       C  0.69871041  0.06134721  0.36247335    -0.02800
C1002       C  0.68853203  0.03566560  0.38139333     0.04000
N1003       N  0.65514757  0.03617171  0.39854009     0.66500
H1004       H  0.70571525  0.49001254  0.40418516     0.15400
H1005       H  0.73635187  0.07566847  0.32659935     0.15100
N1006       N  0.77968088  0.02693198  0.32191582     0.74200
O1007       O  0.62502458  0.03342247  0.38448896    -0.39200
O1008       O  0.65597540  0.03255225  0.42733028    -0.39200
O1009       O  0.77370022  0.01280798  0.29692714    -0.39900
O1010       O  0.80858267  0.04285362  0.32494060    -0.39900
C1011       C  0.77541275  0.30440783  0.35313870    -0.12200
C1012       C  0.79765294  0.31203311  0.37849407     0.04800
C1013       C  0.79927741  0.29031437  0.40332744    -0.07500
C1014       C  0.77715617  0.26312142  0.40305166    -0.08300
C1015       C  0.75283159  0.25719713  0.37863188    -0.02800
C1016       C  0.75312917  0.27772450  0.35311835     0.04000
N1017       N  0.73009763  0.27227240  0.32709531     0.66500
H1018       H  0.77380497  0.32011757  0.33350666     0.15400
H1019       H  0.77778603  0.24735504  0.42267152     0.15100
N1020       N  0.82158007  0.29621066  0.42972811     0.74200
O1021       O  0.70198866  0.28912449  0.32327678    -0.39200
O1022       O  0.74188163  0.25592067  0.30505368    -0.39200
O1023       O  0.80702529  0.30659903  0.45397776    -0.39900
O1024       O  0.85373701  0.28529188  0.43078562    -0.39900
Fe1025     Fe  0.85229849  0.95948351  0.36940826     1.65800
Fe1026     Fe  0.85802861  0.89471283  0.41291619     1.73200
Fe1027     Fe  0.78057089  0.90968526  0.37172117     1.54400
O1028       O  0.75818365  0.95364335  0.38034250    -0.81600
O1029       O  0.83517521  0.85200765  0.39812037    -0.79900
O1030       O  0.80344087  0.98424457  0.36462952    -0.84100
O1031       O  0.84674073  0.94419725  0.32502664    -0.79000
O1032       O  0.76657554  0.89533373  0.41618907    -0.80800
O1033       O  0.90118044  0.89065132  0.38232242    -0.83500
C1034       C  0.81860310  0.93312854  0.31151424     0.97300
C1035       C  0.76979228  0.97994391  0.37071539     1.04700
O1036       O  0.82994514  0.92112077  0.38456394    -1.12500
O1037       O  0.88280027  0.93318378  0.43446863    -0.74900
O1038       O  0.85779536  0.97596126  0.41389269    -0.78400
O1039       O  0.79101674  0.92218564  0.32605948    -0.79100
C1040       C  0.87394107  0.96210752  0.43609141     0.96200
O1041       O  0.90520995  0.94113768  0.37045218    -0.77100
O1042       O  0.81757493  0.89755343  0.44485068    -0.82300
C1043       C  0.81126600  0.84422795  0.37815676     0.98800
C1044       C  0.78346691  0.89291053  0.44189682     1.04700
O1045       O  0.79593893  0.86457678  0.36108333    -0.77900
C1046       C  0.91945897  0.91395736  0.37243041     1.03000
Fe1047     Fe  0.85851848  0.52352695  0.62225392     1.65800
Fe1048     Fe  0.86128620  0.59063732  0.58179709     1.73200
Fe1049     Fe  0.78347814  0.56962774  0.61883624     1.54400
O1050       O  0.76573367  0.52563603  0.60535640    -0.81600
O1051       O  0.83491659  0.63084725  0.59873322    -0.79900
O1052       O  0.81114058  0.49652281  0.62358569    -0.84100
O1053       O  0.85010829  0.53643551  0.66715844    -0.79000
O1054       O  0.77073576  0.58671974  0.57481476    -0.80800
O1055       O  0.90222617  0.59485186  0.61398154    -0.83500
C1056       C  0.82040368  0.54541313  0.67973176     0.97300
C1057       C  0.77828356  0.49938868  0.61426878     1.04700
O1058       O  0.83415964  0.56147403  0.60775829    -1.12500
O1059       O  0.88872135  0.55436972  0.55865531    -0.74900
O1060       O  0.86637570  0.50966650  0.57739865    -0.78400
O1061       O  0.79243795  0.55431996  0.66411420    -0.79100
C1062       C  0.88083040  0.52535618  0.55566957     0.96200
O1063       O  0.91030448  0.54420293  0.62355660    -0.77100
O1064       O  0.82307176  0.58849908  0.54823367    -0.82300
C1065       C  0.80967043  0.63632694  0.61828403     0.98800
C1066       C  0.78874436  0.59176258  0.55005538     1.04700
O1067       O  0.79469601  0.61443862  0.63348198    -0.77900
C1068       C  0.92233592  0.57217996  0.62257311     1.03000
Fe1069     Fe  0.14199468  0.96353569  0.36855052     1.65800
Fe1070     Fe  0.14002200  0.89791371  0.41117377     1.73200
Fe1071     Fe  0.21655898  0.91668536  0.37089543     1.54400
O1072       O  0.20629072  0.93093889  0.32549724    -0.81600
O1073       O  0.18002097  0.90131276  0.44332179    -0.79900
O1074       O  0.14887177  0.94982225  0.32375750    -0.84100
O1075       O  0.18947099  0.99033421  0.36508807    -0.79000
O1076       O  0.20400607  0.87142808  0.35813732    -0.80800
O1077       O  0.11355717  0.93494647  0.43361478    -0.83500
C1078       C  0.22257056  0.98712993  0.37363362     0.97300
C1079       C  0.17830392  0.94093339  0.31063441     1.04700
O1080       O  0.16639421  0.92573563  0.38321938    -1.12500
O1081       O  0.09719783  0.89260289  0.38076554    -0.74900
O1082       O  0.09003847  0.94291373  0.36917827    -0.78400
O1083       O  0.23517015  0.96092634  0.38264865    -0.79100
C1084       C  0.07723972  0.91522411  0.37177155     0.96200
O1085       O  0.13600095  0.97872791  0.41324362    -0.77100
O1086       O  0.16529192  0.85710180  0.39500374    -0.82300
C1087       C  0.21420497  0.89739323  0.44039671     0.98800
C1088       C  0.18950027  0.85047807  0.37492529     1.04700
O1089       O  0.23111104  0.90092317  0.41490649    -0.77900
C1090       C  0.12188900  0.96391052  0.43568388     1.03000
Fe1091     Fe  0.14431568  0.52887734  0.62279181     1.65800
Fe1092     Fe  0.14175129  0.59373264  0.57932812     1.73200
Fe1093     Fe  0.21717961  0.57718574  0.62180639     1.54400
O1094       O  0.20558209  0.56347344  0.66710156    -0.81600
O1095       O  0.18282433  0.58964926  0.54832965    -0.79900
O1096       O  0.14864565  0.54412154  0.66739462    -0.84100
O1097       O  0.19264152  0.50321496  0.62795277    -0.79000
O1098       O  0.20220824  0.62188794  0.63404669    -0.80800
O1099       O  0.11635644  0.55596564  0.55715159    -0.83500
C1100       C  0.22593631  0.50701675  0.62026263     0.97300
C1101       C  0.17662998  0.55479905  0.68134699     1.04700
O1102       O  0.16795241  0.56680195  0.60817025    -1.12500
O1103       O  0.09813170  0.59893533  0.60880808    -0.74900
O1104       O  0.09210339  0.54849752  0.62063647    -0.78400
O1105       O  0.23787376  0.53334552  0.61111187    -0.79100
C1106       C  0.07888701  0.57605225  0.61811055     0.96200
O1107       O  0.13984179  0.51279411  0.57813840    -0.77100
O1108       O  0.16568317  0.63540606  0.59537657    -0.82300
C1109       C  0.21666023  0.59510786  0.55181050     0.98800
C1110       C  0.18825251  0.64259734  0.61666500     1.04700
O1111       O  0.23272212  0.59311397  0.57792592    -0.77900
C1112       C  0.12482830  0.52695653  0.55557998     1.03000
Fe1113     Fe  0.35642511  0.71445267  0.37301466     1.65800
Fe1114     Fe  0.35889547  0.64766765  0.41380247     1.73200
Fe1115     Fe  0.28247795  0.66772245  0.37423187     1.54400
O1116       O  0.26343562  0.71071934  0.38896613    -0.81600
O1117       O  0.33292654  0.60754706  0.39662104    -0.79900
O1118       O  0.30843859  0.74098470  0.37154960    -0.84100
O1119       O  0.34896629  0.70209471  0.32792021    -0.79000
O1120       O  0.26846701  0.64894142  0.41732281    -0.80800
O1121       O  0.40108933  0.64292173  0.38277579    -0.83500
C1122       C  0.31951011  0.69399633  0.31444453     0.97300
C1123       C  0.27566884  0.73721933  0.38075896     1.04700
O1124       O  0.33245279  0.67649384  0.38687954    -1.12500
O1125       O  0.38645874  0.68356481  0.43697767    -0.74900
O1126       O  0.36426620  0.72813027  0.41784514    -0.78400
O1127       O  0.29129613  0.68473946  0.32933356    -0.79100
C1128       C  0.37963619  0.71276203  0.43943806     0.96200
O1129       O  0.40796483  0.69350858  0.37200138    -0.77100
O1130       O  0.31905019  0.65115561  0.44614420    -0.82300
C1131       C  0.30977893  0.60218436  0.37531950     0.98800
C1132       C  0.28506763  0.64600006  0.44307417     1.04700
O1133       O  0.29712423  0.62418342  0.35873252    -0.77900
C1134       C  0.42059658  0.66566447  0.37349677     1.03000
Fe1135     Fe  0.35511362  0.77897238  0.62017503     1.65800
Fe1136     Fe  0.36132670  0.84609285  0.57962341     1.73200
Fe1137     Fe  0.28176510  0.82644878  0.61539430     1.54400
O1138       O  0.26278380  0.78255665  0.60239793    -0.81600
O1139       O  0.33693047  0.88709732  0.59671844    -0.79900
O1140       O  0.30678008  0.75276269  0.62197687    -0.84100
O1141       O  0.34673983  0.79306691  0.66463071    -0.79000
O1142       O  0.27018195  0.84260571  0.57084290    -0.80800
O1143       O  0.40244705  0.84870904  0.61202159    -0.83500
C1144       C  0.31774751  0.80356369  0.67722371     0.97300
C1145       C  0.27424597  0.75625035  0.61204819     1.04700
O1146       O  0.33243406  0.81740995  0.60502958    -1.12500
O1147       O  0.38720493  0.80892413  0.55672749    -0.74900
O1148       O  0.36332078  0.76470541  0.57554621    -0.78400
O1149       O  0.28980541  0.81235288  0.66144143    -0.79100
C1150       C  0.37910891  0.77992399  0.55407433     0.96200
O1151       O  0.40776871  0.79791207  0.62161084    -0.77100
O1152       O  0.32341002  0.84601969  0.54553355    -0.82300
C1153       C  0.31093923  0.89288582  0.61543057     0.98800
C1154       C  0.28887045  0.84812030  0.54654145     1.04700
O1155       O  0.29385059  0.87116274  0.62922769    -0.77900
C1156       C  0.42136987  0.82531118  0.62067859     1.03000
Fe1157     Fe  0.64491183  0.70918812  0.37303171     1.65800
Fe1158     Fe  0.63769702  0.64000543  0.41047479     1.73200
Fe1159     Fe  0.71664816  0.65909348  0.37353600     1.54400
O1160       O  0.70730857  0.67561730  0.32850939    -0.81600
O1161       O  0.67689614  0.63664776  0.44347277    -0.79900
O1162       O  0.65158625  0.69780043  0.32774058    -0.84100
O1163       O  0.69410110  0.73401749  0.37138835    -0.79000
O1164       O  0.70227386  0.61510536  0.35842395    -0.80800
O1165       O  0.61448359  0.67677269  0.43608256    -0.83500
C1166       C  0.72730750  0.72904542  0.37880215     0.97300
C1167       C  0.67999790  0.68765461  0.31407568     1.04700
O1168       O  0.66680531  0.66929788  0.38581210    -1.12500
O1169       O  0.59564536  0.64040663  0.37888035    -0.74900
O1170       O  0.59168908  0.69168281  0.37143925    -0.78400
O1171       O  0.73834011  0.70204345  0.38695135    -0.79100
C1172       C  0.57747273  0.66450745  0.37105470     0.96200
O1173       O  0.63787248  0.72174385  0.41831286    -0.77100
O1174       O  0.65926034  0.59903200  0.39082139    -0.82300
C1175       C  0.71137150  0.63413383  0.44167666     0.98800
C1176       C  0.68451773  0.59323448  0.37144762     1.04700
O1177       O  0.72939153  0.64087943  0.41726485    -0.77900
C1178       C  0.62244090  0.70576954  0.43938674     1.03000
Fe1179     Fe  0.64198264  0.77444366  0.62101250     1.65800
Fe1180     Fe  0.64034797  0.83836408  0.57565898     1.73200
Fe1181     Fe  0.71614123  0.82029170  0.61707861     1.54400
O1182       O  0.70705159  0.80717590  0.66313881    -0.81600
O1183       O  0.67994738  0.83143666  0.54353916    -0.79900
O1184       O  0.64946517  0.78980148  0.66521738    -0.84100
O1185       O  0.68977368  0.74711171  0.62422835    -0.79000
O1186       O  0.70144042  0.86478493  0.62930283    -0.80800
O1187       O  0.61158066  0.80142334  0.55539963    -0.83500
C1188       C  0.72273856  0.75009026  0.61503195     0.97300
C1189       C  0.67849792  0.79945114  0.67836902     1.04700
O1190       O  0.66628881  0.81111977  0.60472693    -1.12500
O1191       O  0.59829978  0.84605494  0.60628429    -0.74900
O1192       O  0.59075279  0.79633711  0.62054444    -0.78400
O1193       O  0.73522327  0.77617785  0.60578903    -0.79100
C1194       C  0.57846965  0.82416985  0.61704677     0.96200
O1195       O  0.63420845  0.75826061  0.57702798    -0.77100
O1196       O  0.66738770  0.87954004  0.58965110    -0.82300
C1197       C  0.71385199  0.83673699  0.54669353     0.98800
C1198       C  0.68997045  0.88591070  0.61113361     1.04700
O1199       O  0.73009740  0.83554934  0.57276181    -0.77900
C1200       C  0.61893021  0.77225487  0.55448426     1.03000
Fe1201     Fe  0.85119982  0.96877304  0.12060590     1.65800
Fe1202     Fe  0.85580983  0.90243971  0.07913250     1.73200
Fe1203     Fe  0.77812489  0.92070832  0.11862203     1.54400
O1204       O  0.78827337  0.93415090  0.16397463    -0.81600
O1205       O  0.81534265  0.90364638  0.04700043    -0.79900
O1206       O  0.84447632  0.95507806  0.16548305    -0.84100
O1207       O  0.80302509  0.99474713  0.12295780    -0.79000
O1208       O  0.79199629  0.87592976  0.13138571    -0.80800
O1209       O  0.88057851  0.93965226  0.05545208    -0.83500
C1210       C  0.76964383  0.99105231  0.11554915     0.97300
C1211       C  0.81622123  0.94406610  0.17875903     1.04700
O1212       O  0.82812847  0.93043352  0.10618221    -1.12500
O1213       O  0.89904954  0.89912788  0.10970806    -0.74900
O1214       O  0.90348689  0.94954110  0.12132491    -0.78400
O1215       O  0.75739476  0.96459258  0.10730088    -0.79100
C1216       C  0.91731130  0.92223504  0.11982504     0.96200
O1217       O  0.85805299  0.98339805  0.07589327    -0.77100
O1218       O  0.83286288  0.86106287  0.09656321    -0.82300
C1219       C  0.78092905  0.90058672  0.04963070     0.98800
C1220       C  0.80826715  0.85465381  0.11634078     1.04700
O1221       O  0.76393283  0.90516644  0.07483906    -0.77900
C1222       C  0.87291195  0.96878713  0.05365895     1.03000
Fe1223     Fe  0.85136564  0.53667101  0.87255689     1.65800
Fe1224     Fe  0.85213961  0.60343072  0.91276525     1.73200
Fe1225     Fe  0.77697422  0.58369451  0.87126175     1.54400
O1226       O  0.78826297  0.56727046  0.82678110    -0.81600
O1227       O  0.81119209  0.59970668  0.94355154    -0.79900
O1228       O  0.84581980  0.54906106  0.82714569    -0.84100
O1229       O  0.80348488  0.50992829  0.86920356    -0.79000
O1230       O  0.79102695  0.62796154  0.85664278    -0.80800
O1231       O  0.87847624  0.56751553  0.93711270    -0.83500
C1232       C  0.77000435  0.51356972  0.87660744     0.97300
C1233       C  0.81682470  0.55726393  0.81284851     1.04700
O1234       O  0.82670299  0.57482300  0.88519360    -1.12500
O1235       O  0.89594690  0.60820936  0.88352396    -0.74900
O1236       O  0.90327152  0.55753204  0.87340510    -0.78400
O1237       O  0.75738575  0.54008096  0.88458929    -0.79100
C1238       C  0.91600492  0.58528967  0.87560370     0.96200
O1239       O  0.85687062  0.52291124  0.91792630    -0.77100
O1240       O  0.82697266  0.64372588  0.89473061    -0.82300
C1241       C  0.77752301  0.60554413  0.93987180     0.98800
C1242       C  0.80395298  0.64960105  0.87336452     1.04700
O1243       O  0.76122264  0.60211353  0.91405216    -0.77900
C1244       C  0.87105841  0.53846540  0.93985268     1.03000
Fe1245     Fe  0.13745235  0.97263548  0.12216970     1.65800
Fe1246     Fe  0.13339873  0.90693423  0.08013709     1.73200
Fe1247     Fe  0.21195683  0.92674914  0.11613458     1.54400
O1248       O  0.22917709  0.97098558  0.10310510    -0.81600
O1249       O  0.16115524  0.86613596  0.09467804    -0.79900
O1250       O  0.18525022  0.99965819  0.12419521    -0.84100
O1251       O  0.14662704  0.95834474  0.16626111    -0.79000
O1252       O  0.22288561  0.91073168  0.07128783    -0.80800
O1253       O  0.09420097  0.90074860  0.11332846    -0.83500
C1254       C  0.17689962  0.94980909  0.17811020     0.97300
C1255       C  0.21772496  0.99676198  0.11391981     1.04700
O1256       O  0.16120276  0.93521147  0.10637010    -1.12500
O1257       O  0.10417486  0.94398523  0.05983485    -0.74900
O1258       O  0.12889063  0.98791170  0.07800097    -0.78400
O1259       O  0.20447550  0.94101335  0.16202255    -0.79100
C1260       C  0.11308422  0.97276380  0.05669482     0.96200
O1261       O  0.08589082  0.95125092  0.12324670    -0.77100
O1262       O  0.16988562  0.91165487  0.04558871    -0.82300
C1263       C  0.18619398  0.86025270  0.11440011     0.98800
C1264       C  0.20408388  0.90734428  0.04657541     1.04700
O1265       O  0.20065524  0.88186151  0.13021534    -0.77900
C1266       C  0.07396059  0.92315045  0.12209039     1.03000
Fe1267     Fe  0.13940322  0.53801079  0.87261866     1.65800
Fe1268     Fe  0.13528532  0.60284570  0.91581756     1.73200
Fe1269     Fe  0.21205797  0.58600471  0.87569140     1.54400
O1270       O  0.23229602  0.54256416  0.88869597    -0.81600
O1271       O  0.16018733  0.64466278  0.90009025    -0.79900
O1272       O  0.18810551  0.51268596  0.86952875    -0.84100
O1273       O  0.14581822  0.55274818  0.82812462    -0.79000
O1274       O  0.22547436  0.60324920  0.91944887    -0.80800
O1275       O  0.09263227  0.60786844  0.88493155    -0.83500
C1276       C  0.17528256  0.56142401  0.81503131     0.97300
C1277       C  0.22078523  0.51633634  0.87905425     1.04700
O1278       O  0.16236431  0.57585253  0.88782026    -1.12500
O1279       O  0.10917740  0.56499764  0.93747805    -0.74900
O1280       O  0.13340569  0.52209610  0.91697259    -0.78400
O1281       O  0.20327825  0.57067718  0.83027366    -0.79100
C1282       C  0.11800728  0.53606238  0.93924918     0.96200
O1283       O  0.08688805  0.55752010  0.87284602    -0.77100
O1284       O  0.17515746  0.59867404  0.94827130    -0.82300
C1285       C  0.18319773  0.65132309  0.87894515     0.98800
C1286       C  0.20885921  0.60477348  0.94527017     1.04700
O1287       O  0.19654479  0.63010932  0.86187836    -0.77900
C1288       C  0.07356461  0.58505103  0.87510678     1.03000
Fe1289     Fe  0.35335781  0.72314139  0.12180760     1.65800
Fe1290     Fe  0.35354851  0.65895712  0.07722231     1.73200
Fe1291     Fe  0.27968189  0.67600994  0.12081726     1.54400
O1292       O  0.29140210  0.68971467  0.16608501    -0.81600
O1293       O  0.31199105  0.66521170  0.04647855    -0.79900
O1294       O  0.34876364  0.70790538  0.16649539    -0.84100
O1295       O  0.30541582  0.74965460  0.12680640    -0.79000
O1296       O  0.29487222  0.63139267  0.13289274    -0.80800
O1297       O  0.38028595  0.69645198  0.05566356    -0.83500
C1298       C  0.27215052  0.74611504  0.11870569     0.97300
C1299       C  0.32031909  0.69824620  0.18046065     1.04700
O1300       O  0.32879839  0.68585002  0.10687591    -1.12500
O1301       O  0.39777439  0.65223548  0.10634607    -0.74900
O1302       O  0.40504878  0.70222309  0.11967850    -0.78400
O1303       O  0.25979840  0.71990098  0.10982870    -0.79100
C1304       C  0.41765999  0.67452846  0.11630942     0.96200
O1305       O  0.35811676  0.73961563  0.07728190    -0.77100
O1306       O  0.32765794  0.61730439  0.09244933    -0.82300
C1307       C  0.27832267  0.65953044  0.05067825     0.98800
C1308       C  0.30547664  0.61055527  0.11418846     1.04700
O1309       O  0.26329275  0.66034861  0.07720166    -0.77900
C1310       C  0.37254649  0.72561432  0.05451020     1.03000
Fe1311     Fe  0.34895366  0.78903406  0.87010511     1.65800
Fe1312     Fe  0.35194619  0.85490992  0.91159821     1.73200
Fe1313     Fe  0.27545220  0.83690118  0.87099626     1.54400
O1314       O  0.28493677  0.82115989  0.82587246    -0.81600
O1315       O  0.31180461  0.85148529  0.94337445    -0.79900
O1316       O  0.34225813  0.80270305  0.82520853    -0.84100
O1317       O  0.30058389  0.76303872  0.86742032    -0.79000
O1318       O  0.29033748  0.88108401  0.85678875    -0.80800
O1319       O  0.37835533  0.81813327  0.93449084    -0.83500
C1320       C  0.26735230  0.76682654  0.87550920     0.97300
C1321       C  0.31322540  0.81152987  0.81132363     1.04700
O1322       O  0.32524605  0.82709086  0.88405582    -1.12500
O1323       O  0.39470186  0.85978875  0.88145178    -0.74900
O1324       O  0.40114823  0.80929433  0.87029603    -0.78400
O1325       O  0.25524270  0.79336417  0.88397224    -0.79100
C1326       C  0.41425116  0.83689640  0.87278238     0.96200
O1327       O  0.35565080  0.77407973  0.91495328    -0.77100
O1328       O  0.32738755  0.89575790  0.89458232    -0.82300
C1329       C  0.27830975  0.85818463  0.93999207     0.98800
C1330       C  0.30451597  0.90229650  0.87332614     1.04700
O1331       O  0.26143428  0.85490815  0.91437980    -0.77900
C1332       C  0.37069843  0.78907934  0.93680615     1.03000
Fe1333     Fe  0.64228204  0.71944958  0.12450222     1.65800
Fe1334     Fe  0.63541073  0.65467747  0.08152231     1.73200
Fe1335     Fe  0.71474878  0.67087037  0.11876772     1.54400
O1336       O  0.73472910  0.71467809  0.10767260    -0.81600
O1337       O  0.65946056  0.61235681  0.09680219    -0.79900
O1338       O  0.69129420  0.74437227  0.12797886    -0.84100
O1339       O  0.65002734  0.70319372  0.16851803    -0.79000
O1340       O  0.72633538  0.65647141  0.07373266    -0.80800
O1341       O  0.59431459  0.65062533  0.11361504    -0.83500
C1342       C  0.67922258  0.69226383  0.18072509     0.97300
C1343       C  0.72396376  0.74057291  0.11858994     1.04700
O1344       O  0.66443219  0.68143444  0.10837822    -1.12500
O1345       O  0.60986041  0.69329407  0.06022123    -0.74900
O1346       O  0.63539627  0.73608445  0.08008262    -0.78400
O1347       O  0.70686127  0.68332046  0.16490811    -0.79100
C1348       C  0.61948531  0.72203390  0.05796344     0.96200
O1349       O  0.58900808  0.70114755  0.12450549    -0.77100
O1350       O  0.67340991  0.65724170  0.04787222    -0.82300
C1351       C  0.68458577  0.60528566  0.11608955     0.98800
C1352       C  0.70780061  0.65379791  0.04887422     1.04700
O1353       O  0.70125945  0.62616245  0.13123451    -0.77900
C1354       C  0.57525594  0.67379796  0.12246245     1.03000
Fe1355     Fe  0.63669570  0.78517113  0.87106861     1.65800
Fe1356     Fe  0.63405443  0.85049178  0.91375348     1.73200
Fe1357     Fe  0.70974209  0.83347661  0.87227602     1.54400
O1358       O  0.73027400  0.79008758  0.88469676    -0.81600
O1359       O  0.65910130  0.89204966  0.89800716    -0.79900
O1360       O  0.68511164  0.75948100  0.86831712    -0.84100
O1361       O  0.64302269  0.79894141  0.82585634    -0.79000
O1362       O  0.72441880  0.85013913  0.91577858    -0.80800
O1363       O  0.59087730  0.85570356  0.88348493    -0.83500
C1364       C  0.67181042  0.80858640  0.81224095     0.97300
C1365       C  0.71820629  0.76352584  0.87661831     1.04700
O1366       O  0.66026792  0.82323187  0.88538845    -1.12500
O1367       O  0.60790203  0.81322364  0.93626745    -0.74900
O1368       O  0.63079342  0.76964569  0.91605673    -0.78400
O1369       O  0.69977283  0.81855726  0.82704703    -0.79100
C1370       C  0.61659609  0.78432015  0.93852596     0.96200
O1371       O  0.58446256  0.80543542  0.87119010    -0.77100
O1372       O  0.67469598  0.84612820  0.94523164    -0.82300
C1373       C  0.68212815  0.89884072  0.87697262     0.98800
C1374       C  0.70843086  0.85203088  0.94180253     1.04700
O1375       O  0.69446853  0.87790301  0.85908366    -0.77900
C1376       C  0.57153422  0.83310533  0.87352132     1.03000
C1377       C  0.60907580  0.72104225  0.00096940    -0.12200
C1378       C  0.61332196  0.73879557  0.02802845     0.04800
C1379       C  0.61496482  0.77183750  0.02521071    -0.07500
C1380       C  0.61398045  0.78604232  0.99598918    -0.08300
C1381       C  0.61179821  0.76815730  0.96887494    -0.02800
C1382       C  0.60852435  0.73524678  0.97172978     0.04000
N1383       N  0.60471515  0.71578237  0.94521963     0.66500
H1384       H  0.60761948  0.69566754  0.00229754     0.15400
H1385       H  0.61650908  0.81135328  0.99455042     0.15100
N1386       N  0.61813563  0.79142959  0.05169502     0.74200
O1387       O  0.63237186  0.70147633  0.93487283    -0.39200
O1388       O  0.57309681  0.70772024  0.93650659    -0.39200
O1389       O  0.64886571  0.80301992  0.05860900    -0.39900
O1390       O  0.58951430  0.80191028  0.06432162    -0.39900
C1391       C  0.47257348  0.82021199  0.84850027    -0.12200
C1392       C  0.45410883  0.84135464  0.86762356     0.04800
C1393       C  0.47491391  0.86322210  0.88468578    -0.07500
C1394       C  0.51331986  0.86157607  0.88435441    -0.08300
C1395       C  0.53179483  0.83832873  0.86747379    -0.02800
C1396       C  0.51089038  0.81841491  0.84823653     0.04000
N1397       N  0.52769849  0.79621192  0.82812023     0.66500
H1398       H  0.45707333  0.80380985  0.83458746     0.15400
H1399       H  0.52860263  0.87728141  0.89916572     0.15100
N1400       N  0.45768203  0.88524142  0.90477162     0.74200
O1401       O  0.53682748  0.76968440  0.83860787    -0.39200
O1402       O  0.52242790  0.79915213  0.79954861    -0.39200
O1403       O  0.45368359  0.87849235  0.93286527    -0.39900
O1404       O  0.45288322  0.91314889  0.89586896    -0.39900
C1405       C  0.47560114  0.69008057  0.14268774    -0.12200
C1406       C  0.45737325  0.66941551  0.12267000     0.04800
C1407       C  0.47841064  0.64711316  0.10637411    -0.07500
C1408       C  0.51676153  0.64718359  0.10893813    -0.08300
C1409       C  0.53509699  0.66962877  0.12691053    -0.02800
C1410       C  0.51396640  0.69047987  0.14483476     0.04000
N1411       N  0.53097555  0.71274201  0.16478072     0.66500
H1412       H  0.46003159  0.70703349  0.15588628     0.15400
H1413       H  0.53233922  0.63113357  0.09471073     0.15100
N1414       N  0.46181145  0.62659871  0.08448447     0.74200
O1415       O  0.53375890  0.74096563  0.15627806    -0.39200
O1416       O  0.53583096  0.70581437  0.19274864    -0.39200
O1417       O  0.45836129  0.63544885  0.05688314    -0.39900
O1418       O  0.45734037  0.59805266  0.09119853    -0.39900
C1419       C  0.37392578  0.79051675  0.99388588    -0.12200
C1420       C  0.37763104  0.77310207  0.96668073     0.04800
C1421       C  0.38499211  0.74069095  0.96894892    -0.07500
C1422       C  0.38571926  0.72605717  0.99793598    -0.08300
C1423       C  0.37892123  0.74305420  0.02511838    -0.02800
C1424       C  0.37463108  0.77597139  0.02283503     0.04000
N1425       N  0.37056591  0.79507016  0.04958363     0.66500
H1426       H  0.36898105  0.81557723  0.99272037     0.15400
H1427       H  0.39010039  0.70092447  0.99892630     0.15100
N1428       N  0.39227457  0.72238228  0.94212834     0.74200
O1429       O  0.39876486  0.80489024  0.06335485    -0.39200
O1430       O  0.33966423  0.80672971  0.05590699    -0.39200
O1431       O  0.42497887  0.71579835  0.93521744    -0.39900
O1432       O  0.36636896  0.70839360  0.92868720    -0.39900
C1433       C  0.29447718  0.95564289  0.89554109    -0.12200
C1434       C  0.29033030  0.93503078  0.87043527     0.04800
C1435       C  0.26632226  0.94390399  0.84628538    -0.07500
C1436       C  0.24502010  0.97106301  0.84891564    -0.08300
C1437       C  0.24720536  0.99023123  0.87499265    -0.02800
C1438       C  0.27305242  0.98293904  0.89806751     0.04000
N1439       N  0.27304112  0.49930269  0.92818680     0.66500
H1440       H  0.31227324  0.94937274  0.91459865     0.15400
H1441       H  0.22602993  0.97693526  0.83052838     0.15100
N1442       N  0.26196790  0.92500159  0.81943137     0.74200
O1443       O  0.24918123  0.49469346  0.94870654    -0.39200
O1444       O  0.30104849  0.51543732  0.93436573    -0.39200
O1445       O  0.23272767  0.90969574  0.81567981    -0.39900
O1446       O  0.28353907  0.92865338  0.79703860    -0.39900
C1447       C  0.21472756  0.73525048  0.89673320    -0.12200
C1448       C  0.24216222  0.73930018  0.87437987     0.04800
C1449       C  0.24569085  0.71641332  0.85116481    -0.07500
C1450       C  0.22401269  0.68935534  0.85184972    -0.08300
C1451       C  0.19839920  0.68387058  0.87548754    -0.02800
C1452       C  0.19303507  0.70788651  0.89757107     0.04000
N1453       N  0.16681697  0.70449275  0.92172381     0.66500
H1454       H  0.21105532  0.75283849  0.91442987     0.15400
H1455       H  0.22843299  0.67192593  0.83412620     0.15100
N1456       N  0.27113015  0.72033913  0.82645607     0.74200
O1457       O  0.17721617  0.69528752  0.94795882    -0.39200
O1458       O  0.13534092  0.71643600  0.91861521    -0.39200
O1459       O  0.30048012  0.70462096  0.82624859    -0.39900
O1460       O  0.26140216  0.73504630  0.80254369    -0.39900
C1461       C  0.23450499  0.62217387  0.02789974    -0.12200
C1462       C  0.25737624  0.64824619  0.02398132     0.04800
C1463       C  0.26493190  0.65917959  0.99397799    -0.07500
C1464       C  0.25063874  0.64339686  0.96853541    -0.08300
C1465       C  0.22802290  0.61716994  0.97241660    -0.02800
C1466       C  0.21970458  0.60667958  0.00246572     0.04000
N1467       N  0.19694581  0.57992337  0.00752030     0.66500
H1468       H  0.22924933  0.61297281  0.05077132     0.15400
H1469       H  0.25594426  0.65256676  0.94565827     0.15100
N1470       N  0.28619067  0.68683753  0.98903659     0.74200
O1471       O  0.16344740  0.58388506  0.01356265    -0.39200
O1472       O  0.21155782  0.55354768  0.01256469    -0.39200
O1473       O  0.31766649  0.68456049  0.97728781    -0.39900
O1474       O  0.27090452  0.71336582  0.99054488    -0.39900
C1475       C  0.22122091  0.86823677  0.96934818    -0.12200
C1476       C  0.25917793  0.87150062  0.96679880     0.04800
C1477       C  0.27849887  0.88848367  0.98964156    -0.07500
C1478       C  0.25992481  0.90039862  0.01506007    -0.08300
C1479       C  0.22207870  0.89648728  0.01810872    -0.02800
C1480       C  0.20245004  0.88057461  0.99454998     0.04000
N1481       N  0.16361977  0.87604986  0.99590011     0.66500
H1482       H  0.20597036  0.85570150  0.95183845     0.15400
H1483       H  0.27530205  0.91301577  0.03243473     0.15100
N1484       N  0.31678267  0.89502208  0.98683966     0.74200
O1485       O  0.14301344  0.89485022  0.98154596    -0.39200
O1486       O  0.15115911  0.84955339  0.00346496    -0.39200
O1487       O  0.32692162  0.92053538  0.97479433    -0.39900
O1488       O  0.33967134  0.87863234  0.00164765    -0.39900
C1489       C  0.11536871  0.97081814  0.99999115    -0.12200
C1490       C  0.10759804  0.98816636  0.02649744     0.04800
C1491       C  0.09995960  0.52111417  0.02418550    -0.07500
C1492       C  0.10098607  0.53552188  0.99509622    -0.08300
C1493       C  0.11133419  0.51868989  0.96860750    -0.02800
C1494       C  0.11853430  0.98525742  0.97116874     0.04000
N1495       N  0.12998186  0.96654052  0.94568289     0.66500
H1496       H  0.12153651  0.94607442  0.00202296     0.15400
H1497       H  0.09506204  0.56040469  0.99355908     0.15100
N1498       N  0.09016037  0.53938179  0.05043168     0.74200
O1499       O  0.16374211  0.96164419  0.94144262    -0.39200
O1500       O  0.10534229  0.45025908  0.93282102    -0.39200
O1501       O  0.11567562  0.05570387  0.06229967    -0.39900
O1502       O  0.05678624  0.54261035  0.05735593    -0.39900
C1503       C  0.22391294  0.82111418  0.14352831    -0.12200
C1504       C  0.20195114  0.82797832  0.11763535     0.04800
C1505       C  0.20150304  0.80608350  0.09315487    -0.07500
C1506       C  0.22354018  0.77906860  0.09451863    -0.08300
C1507       C  0.24699012  0.77346116  0.11949345    -0.02800
C1508       C  0.24640828  0.79439210  0.14453521     0.04000
N1509       N  0.26836472  0.78873983  0.17126658     0.66500
H1510       H  0.22482515  0.83726797  0.16272980     0.15400
H1511       H  0.22370034  0.76315472  0.07509840     0.15100
N1512       N  0.18210017  0.81235792  0.06527180     0.74200
O1513       O  0.29817226  0.80330169  0.17468844    -0.39200
O1514       O  0.25508683  0.77359115  0.19360209    -0.39200
O1515       O  0.20010375  0.81823828  0.04117227    -0.39900
O1516       O  0.14886710  0.80449424  0.06306295    -0.39900
C1517       C  0.26251091  0.57338208  0.14033132    -0.12200
C1518       C  0.28800921  0.57871846  0.11652462     0.04800
C1519       C  0.29152009  0.55540118  0.09351128    -0.07500
C1520       C  0.26912806  0.52848961  0.09423689    -0.08300
C1521       C  0.24236232  0.52426693  0.11714190    -0.02800
C1522       C  0.23983381  0.54685808  0.14074845     0.04000
N1523       N  0.21462929  0.54312552  0.16565776     0.66500
H1524       H  0.25913697  0.59045911  0.15854011     0.15400
H1525       H  0.27154465  0.01202576  0.07336396     0.15100
N1526       N  0.31640322  0.55915331  0.06843195     0.74200
O1527       O  0.22394400  0.52723312  0.18895110    -0.39200
O1528       O  0.18638956  0.56022215  0.16689426    -0.39200
O1529       O  0.34641345  0.54438313  0.06864593    -0.39900
O1530       O  0.30534959  0.57171553  0.04376017    -0.39900
C1531       C  0.01463476  0.61255302  0.88595399    -0.12200
C1532       C  0.03371395  0.58964395  0.86913664     0.04800
C1533       C  0.01335867  0.56843323  0.85094059    -0.07500
C1534       C  0.97498301  0.56882957  0.85186446    -0.08300
C1535       C  0.95593715  0.59001424  0.87066591    -0.02800
C1536       C  0.97618570  0.61272472  0.88718339     0.04000
N1537       N  0.95857809  0.63377482  0.90804337     0.66500
H1538       H  0.02958372  0.62884882  0.90037256     0.15400
H1539       H  0.95999748  0.55157166  0.83858949     0.15100
N1540       N  0.03117616  0.54567647  0.83204611     0.74200
O1541       O  0.95145847  0.62471861  0.93506189    -0.39200
O1542       O  0.95685522  0.66261824  0.90160551    -0.39200
O1543       O  0.03109444  0.51719895  0.84005818    -0.39900
O1544       O  0.04020580  0.55293190  0.80492755    -0.39900
C1545       C  0.70410690  0.63086419  0.99641617    -0.12200
C1546       C  0.72577583  0.64427779  0.01992736     0.04800
C1547       C  0.76392522  0.64607272  0.01589464    -0.07500
C1548       C  0.77969368  0.63355238  0.98948936    -0.08300
C1549       C  0.75834177  0.61864770  0.96678708    -0.02800
C1550       C  0.72005086  0.61799116  0.97007959     0.04000
N1551       N  0.69712372  0.60348285  0.94754292     0.66500
H1552       H  0.67463266  0.62914698  0.99892812     0.15400
H1553       H  0.80909152  0.63580026  0.98674242     0.15100
N1554       N  0.78708601  0.66086844  0.03807014     0.74200
O1555       O  0.69625137  0.57398704  0.94529808    -0.39200
O1556       O  0.67845724  0.62018712  0.92929191    -0.39200
O1557       O  0.80791291  0.64434280  0.05476533    -0.39900
O1558       O  0.79144703  0.69021000  0.03714643    -0.39900
C1559       C  0.79227423  0.70301900  0.89525885    -0.12200
C1560       C  0.78805883  0.68185982  0.87060750     0.04800
C1561       C  0.76294517  0.68982824  0.84694330    -0.07500
C1562       C  0.74092100  0.71655003  0.84952032    -0.08300
C1563       C  0.74360355  0.73645605  0.87495186    -0.02800
C1564       C  0.77045521  0.73014925  0.89752020     0.04000
N1565       N  0.77383484  0.74957338  0.92409873     0.66500
H1566       H  0.81097454  0.69760059  0.91395174     0.15400
H1567       H  0.72139486  0.72175649  0.83133826     0.15100
N1568       N  0.75924734  0.67117546  0.81995312     0.74200
O1569       O  0.75427385  0.74408690  0.94742393    -0.39200
O1570       O  0.80035202  0.76841000  0.92620366    -0.39200
O1571       O  0.73180789  0.65338015  0.81733193    -0.39900
O1572       O  0.77678492  0.67908591  0.79616812    -0.39900
C1573       C  0.71852323  0.98028355  0.89856200    -0.12200
C1574       C  0.74312306  0.98591012  0.87435203     0.04800
C1575       C  0.74358154  0.96491573  0.84933276    -0.07500
C1576       C  0.72141560  0.93807531  0.84969508    -0.08300
C1577       C  0.69836477  0.93110319  0.87477463    -0.02800
C1578       C  0.69654377  0.95312854  0.89918173     0.04000
N1579       N  0.67446412  0.94745226  0.92574230     0.66500
H1580       H  0.71824939  0.49633186  0.91816910     0.15400
H1581       H  0.72322949  0.92204766  0.83043959     0.15100
N1582       N  0.76605874  0.97081016  0.82302753     0.74200
O1583       O  0.68841989  0.93405731  0.94891831    -0.39200
O1584       O  0.64396805  0.96120612  0.92832399    -0.39200
O1585       O  0.79464152  0.95468181  0.81879886    -0.39900
O1586       O  0.75415928  0.98816164  0.80163774    -0.39900
C1587       C  0.01484869  0.94091275  0.14402180    -0.12200
C1588       C  0.03448772  0.91760792  0.12842590     0.04800
C1589       C  0.01485538  0.89228445  0.11537353    -0.07500
C1590       C  0.97637480  0.89281824  0.11510206    -0.08300
C1591       C  0.95681747  0.91821341  0.12756564    -0.02800
C1592       C  0.97657665  0.94149605  0.14370912     0.04000
N1593       N  0.95845288  0.96646963  0.15937987     0.66500
H1594       H  0.02928069  0.95996108  0.15521406     0.15400
H1595       H  0.96194240  0.87434064  0.10304849     0.15100
N1596       N  0.03326691  0.86727090  0.09992118     0.74200
O1597       O  0.95582751  0.96509857  0.18828424    -0.39200
O1598       O  0.95487473  0.99265671  0.14606925    -0.39200
O1599       O  0.03705120  0.84114373  0.11328713    -0.39900
O1600       O  0.03941703  0.86937349  0.07141731    -0.39900
C1601       C  0.87563078  0.52089160  0.02570809    -0.12200
C1602       C  0.87982061  0.98628517  0.02442132     0.04800
C1603       C  0.88687335  0.97106471  0.99607278    -0.07500
C1604       C  0.88473400  0.98800963  0.96836433    -0.08300
C1605       C  0.87840951  0.52234188  0.96965681    -0.02800
C1606       C  0.87470119  0.53797724  0.99814092     0.04000
N1607       N  0.86650489  0.57070066  0.99958259     0.66500
H1608       H  0.87060552  0.53328994  0.04704249     0.15400
H1609       H  0.88863044  0.97569676  0.94680752     0.15100
N1610       N  0.89537298  0.93836535  0.99476129     0.74200
O1611       O  0.83410729  0.57918333  0.00538899    -0.39200
O1612       O  0.89233225  0.59001121  0.00313421    -0.39200
O1613       O  0.87264228  0.91959816  0.98302372    -0.39900
O1614       O  0.92799796  0.92948217  0.99912552    -0.39900
C1615       C  0.77782831  0.89211247  0.99331641    -0.12200
C1616       C  0.76087136  0.88957846  0.02221058     0.04800
C1617       C  0.72699030  0.87383785  0.02442468    -0.07500
C1618       C  0.71128777  0.86096680  0.99808771    -0.08300
C1619       C  0.72843300  0.86330509  0.96918316    -0.02800
C1620       C  0.76221234  0.87920888  0.96697727     0.04000
N1621       N  0.78060194  0.88320332  0.93821712     0.66500
H1622       H  0.80389801  0.90440382  0.99100443     0.15400
H1623       H  0.68519025  0.84885321  0.00048182     0.15100
N1624       N  0.70864796  0.86981744  0.05322673     0.74200
O1625       O  0.77385452  0.90706836  0.92189504    -0.39200
O1626       O  0.80802863  0.86629132  0.93200729    -0.39200
O1627       O  0.67846015  0.88352041  0.05786030    -0.39900
O1628       O  0.71917638  0.84865306  0.07161145    -0.39900
C1629       C  0.72400060  0.56613887  0.14311748    -0.12200
C1630       C  0.69847459  0.57233784  0.11952203     0.04800
C1631       C  0.69328610  0.54911227  0.09668524    -0.07500
C1632       C  0.71560670  0.52200880  0.09644933    -0.08300
C1633       C  0.74323834  0.51747739  0.11868404    -0.02800
C1634       C  0.74622009  0.53938645  0.14280816     0.04000
N1635       N  0.77639661  0.03762271  0.16412756     0.66500
H1636       H  0.72834433  0.58304391  0.16129932     0.15400
H1637       H  0.71227458  0.50508437  0.07810784     0.15100
N1638       N  0.66705591  0.55347223  0.07259170     0.74200
O1639       O  0.80185692  0.55002026  0.16681392    -0.39200
O1640       O  0.76773475  0.02630350  0.18996991    -0.39200
O1641       O  0.67746392  0.56170753  0.04609470    -0.39900
O1642       O  0.63331254  0.55011011  0.07804253    -0.39900
C1643       C  0.77021925  0.81577161  0.14467354    -0.12200
C1644       C  0.79459367  0.82187102  0.12031100     0.04800
C1645       C  0.79907557  0.79851673  0.09745795    -0.07500
C1646       C  0.77698098  0.77149766  0.09793469    -0.08300
C1647       C  0.75012146  0.76720373  0.12069419    -0.02800
C1648       C  0.74813764  0.78898486  0.14502184     0.04000
N1649       N  0.72369176  0.78433868  0.17030994     0.66500
H1650       H  0.76685189  0.83269870  0.16302604     0.15400
H1651       H  0.77957377  0.75460378  0.07946518     0.15100
N1652       N  0.82401041  0.80267057  0.07245872     0.74200
O1653       O  0.73382207  0.76783203  0.19294526    -0.39200
O1654       O  0.69529388  0.80112061  0.17257002    -0.39200
O1655       O  0.85476167  0.78907257  0.07321010    -0.39900
O1656       O  0.81260978  0.81426420  0.04744620    -0.39900
C1657       C  0.64412127  0.80135369  0.72774286    -0.12200
C1658       C  0.67812881  0.80207947  0.71263252     0.04800
C1659       C  0.71017830  0.80577784  0.73064813    -0.07500
C1660       C  0.70749752  0.80860123  0.76281784    -0.08300
C1661       C  0.67336057  0.80746310  0.77788166    -0.02800
C1662       C  0.64146172  0.80400129  0.75970935     0.04000
N1663       N  0.60582631  0.80350762  0.77315311     0.66500
H1664       H  0.61894492  0.79902730  0.71464724     0.15400
H1665       H  0.73251941  0.81083976  0.77612283     0.15100
N1666       N  0.74575286  0.80546200  0.71694365     0.74200
O1667       O  0.58914162  0.82903307  0.77767344    -0.39200
O1668       O  0.58841294  0.77799064  0.77430012    -0.39200
O1669       O  0.76375922  0.83062033  0.71488558    -0.39900
O1670       O  0.76160755  0.77959743  0.71218510    -0.39900
C1671       C  0.66064725  0.71285405  0.23152893    -0.12200
C1672       C  0.68108484  0.69095416  0.21476775     0.04800
C1673       C  0.70227921  0.66851490  0.23092409    -0.07500
C1674       C  0.70236593  0.66832461  0.26322353    -0.08300
C1675       C  0.68108048  0.68980473  0.27997613    -0.02800
C1676       C  0.66031652  0.71248774  0.26363066     0.04000
N1677       N  0.63901638  0.73575358  0.27906843     0.66500
H1678       H  0.64463432  0.73060573  0.21961703     0.15400
H1679       H  0.71812671  0.65047610  0.27521358     0.15100
N1680       N  0.72175070  0.64442367  0.21502491     0.74200
O1681       O  0.65078424  0.76351794  0.28013965    -0.39200
O1682       O  0.60530843  0.73087022  0.28324283    -0.39200
O1683       O  0.75629802  0.64527790  0.21385073    -0.39900
O1684       O  0.70523865  0.61952605  0.20780511    -0.39900
C1685       C  0.60129035  0.75202728  0.47025195    -0.12200
C1686       C  0.61486770  0.72118716  0.46929494     0.04800
C1687       C  0.62398372  0.70623999  0.49723072    -0.07500
C1688       C  0.62309830  0.72280491  0.52481743    -0.08300
C1689       C  0.61179691  0.75420591  0.52579259    -0.02800
C1690       C  0.59829273  0.76815213  0.49836074     0.04000
N1691       N  0.58004521  0.79784427  0.49882382     0.66500
H1692       H  0.59264383  0.76351462  0.44915488     0.15400
H1693       H  0.63239958  0.71097304  0.54553511     0.15100
N1694       N  0.63533407  0.67432894  0.49809071     0.74200
O1695       O  0.59601557  0.82199134  0.48877445    -0.39200
O1696       O  0.54609104  0.79887835  0.50428580    -0.39200
O1697       O  0.66850793  0.66804531  0.50370823    -0.39900
O1698       O  0.61122706  0.65365531  0.50258040    -0.39900
C1699       C  0.34551010  0.80110772  0.76201611    -0.12200
C1700       C  0.31300732  0.80996928  0.77696995     0.04800
C1701       C  0.28188660  0.81695786  0.75864081    -0.07500
C1702       C  0.28387828  0.81458787  0.72640854    -0.08300
C1703       C  0.31650992  0.80560340  0.71156257    -0.02800
C1704       C  0.34767717  0.79915953  0.73001969     0.04000
N1705       N  0.38251863  0.79206068  0.71681742     0.66500
H1706       H  0.37011266  0.79605493  0.77517656     0.15400
H1707       H  0.25957628  0.81992113  0.71297075     0.15100
N1708       N  0.24806838  0.82666710  0.77215069     0.74200
O1709       O  0.40445360  0.81416154  0.71109959    -0.39200
O1710       O  0.39411160  0.76415242  0.71708471    -0.39200
O1711       O  0.23910536  0.85525437  0.77132459    -0.39900
O1712       O  0.22437492  0.80636592  0.77920704    -0.39900
C1713       C  0.48002484  0.85323531  0.61052379    -0.12200
C1714       C  0.46131672  0.82934346  0.62642027     0.04800
C1715       C  0.48210963  0.80747326  0.64373902    -0.07500
C1716       C  0.52044013  0.80817410  0.64247153    -0.08300
C1717       C  0.53903654  0.82984721  0.62379942    -0.02800
C1718       C  0.51843754  0.85355015  0.60882997     0.04000
N1719       N  0.53561351  0.87626518  0.58938911     0.66500
H1720       H  0.46478700  0.87040008  0.59717982     0.15400
H1721       H  0.53569328  0.79033265  0.65492708     0.15100
N1722       N  0.46509401  0.78384641  0.66223442     0.74200
O1723       O  0.54101752  0.86999463  0.56139149    -0.39200
O1724       O  0.53892984  0.90416410  0.59857031    -0.39200
O1725       O  0.45616298  0.75817821  0.64996227    -0.39900
O1726       O  0.46942415  0.78478174  0.69103296    -0.39900
C1727       C  0.35219371  0.69616256  0.26415993    -0.12200
C1728       C  0.31871951  0.69529659  0.28015878     0.04800
C1729       C  0.28577545  0.69585759  0.26296764    -0.07500
C1730       C  0.28695794  0.69650667  0.23068935    -0.08300
C1731       C  0.32048003  0.69723283  0.21473700    -0.02800
C1732       C  0.35341292  0.69729132  0.23199311     0.04000
N1733       N  0.38849011  0.69789349  0.21735620     0.66500
H1734       H  0.37793293  0.69573196  0.27667443     0.15400
H1735       H  0.26130072  0.69712588  0.21806793     0.15100
N1736       N  0.25088066  0.69723750  0.27779411     0.74200
O1737       O  0.40509440  0.72364720  0.21423049    -0.39200
O1738       O  0.40553614  0.67253990  0.21287063    -0.39200
O1739       O  0.23655182  0.72358525  0.28332720    -0.39900
O1740       O  0.23161895  0.67277104  0.27982673    -0.39900
C1741       C  0.47897397  0.68496974  0.35103528    -0.12200
C1742       C  0.46003903  0.66084918  0.36629362     0.04800
C1743       C  0.48031304  0.63500238  0.37774337    -0.07500
C1744       C  0.51870186  0.63538069  0.37645707    -0.08300
C1745       C  0.53767771  0.66129458  0.36435596    -0.02800
C1746       C  0.51727356  0.68549794  0.35007167     0.04000
N1747       N  0.53483602  0.71116129  0.33494427     0.66500
H1748       H  0.46405861  0.70454005  0.34104638     0.15400
H1749       H  0.53365964  0.61629656  0.38726518     0.15100
N1750       N  0.46283611  0.60958299  0.39337246     0.74200
O1751       O  0.53827202  0.71042345  0.30607938    -0.39200
O1752       O  0.53782011  0.73703887  0.34874184    -0.39200
O1753       O  0.45965829  0.58347379  0.38005097    -0.39900
O1754       O  0.45748431  0.61129803  0.42200642    -0.39900
C1755       C  0.38990813  0.73051348  0.52477651    -0.12200
C1756       C  0.38718718  0.76338678  0.52473843     0.04800
C1757       C  0.38838405  0.77937843  0.49618615    -0.07500
C1758       C  0.38831321  0.76236494  0.46867936    -0.08300
C1759       C  0.38828018  0.72941186  0.46866668    -0.02800
C1760       C  0.39145253  0.71350029  0.49721826     0.04000
N1761       N  0.39524343  0.68012922  0.49883595     0.66500
H1762       H  0.39031574  0.71779994  0.54642284     0.15400
H1763       H  0.38690008  0.77518526  0.44712079     0.15100
N1764       N  0.38718709  0.81283688  0.49446361     0.74200
O1765       O  0.42558466  0.66772955  0.49197431    -0.39200
O1766       O  0.37174012  0.66412351  0.51320033    -0.39200
O1767       O  0.41682616  0.82796608  0.49281793    -0.39900
O1768       O  0.35745317  0.82634181  0.48760381    -0.39900
C1769       C  0.20907586  0.55900762  0.73183203    -0.12200
C1770       C  0.17585174  0.55696699  0.71550737     0.04800
C1771       C  0.14263831  0.55676151  0.73228754    -0.07500
C1772       C  0.14333280  0.55850973  0.76441640    -0.08300
C1773       C  0.17654000  0.56032662  0.78080206    -0.02800
C1774       C  0.20974860  0.56037450  0.76406549     0.04000
N1775       N  0.24446728  0.56022349  0.77934270     0.66500
H1776       H  0.23493531  0.55871123  0.71957102     0.15400
H1777       H  0.11740706  0.55861516  0.77658579     0.15100
N1778       N  0.10780619  0.55541898  0.71718806     0.74200
O1779       O  0.25826733  0.53449609  0.78800454    -0.39200
O1780       O  0.26406512  0.58457684  0.77898421    -0.39200
O1781       O  0.09006705  0.53003459  0.71703437    -0.39900
O1782       O  0.09209270  0.58051093  0.70905673    -0.39900
C1783       C  0.27247294  0.93123080  0.64412684    -0.12200
C1784       C  0.29671229  0.92551474  0.61957032     0.04800
C1785       C  0.30009078  0.94884617  0.59642530    -0.07500
C1786       C  0.27752090  0.97563557  0.59708027    -0.08300
C1787       C  0.25136173  0.97983218  0.62036169    -0.02800
C1788       C  0.24992887  0.95784327  0.64464855     0.04000
N1789       N  0.22569465  0.96219893  0.67011323     0.66500
H1790       H  0.26963418  0.91413375  0.66249117     0.15400
H1791       H  0.28242330  0.49335270  0.58210159     0.15100
N1792       N  0.32443900  0.94489551  0.57100641     0.74200
O1793       O  0.19600017  0.94710397  0.67127277    -0.39200
O1794       O  0.23689210  0.97647613  0.69371270    -0.39200
O1795       O  0.31146483  0.94077672  0.54439023    -0.39900
O1796       O  0.35777033  0.95215077  0.57403111    -0.39900
C1797       C  0.20222783  0.69421326  0.59211244    -0.12200
C1798       C  0.20280101  0.67529422  0.61866845     0.04800
C1799       C  0.22435660  0.68523243  0.64392181    -0.07500
C1800       C  0.24735783  0.71145264  0.64102879    -0.08300
C1801       C  0.24867654  0.72905665  0.61368692    -0.02800
C1802       C  0.22486011  0.72075062  0.58937027     0.04000
N1803       N  0.22565460  0.73704116  0.56063462     0.66500
H1804       H  0.18641608  0.68697510  0.57222260     0.15400
H1805       H  0.26418867  0.71826535  0.66048559     0.15100
N1806       N  0.22302208  0.66908177  0.67277671     0.74200
O1807       O  0.25370344  0.73474374  0.54380487    -0.39200
O1808       O  0.19593225  0.74664687  0.54900160    -0.39200
O1809       O  0.25086041  0.65439941  0.68240517    -0.39900
O1810       O  0.19650433  0.67394412  0.69077233    -0.39900
C1811       C  0.22113278  0.60020230  0.49506376    -0.12200
C1812       C  0.23647034  0.60623553  0.52422560     0.04800
C1813       C  0.26677246  0.62657532  0.52632060    -0.07500
C1814       C  0.28056705  0.64065462  0.49971623    -0.08300
C1815       C  0.26549123  0.63441908  0.47057783    -0.02800
C1816       C  0.23522568  0.61404684  0.46842764     0.04000
N1817       N  0.21899208  0.60648726  0.43943271     0.66500
H1818       H  0.19767075  0.58477786  0.49285095     0.15400
H1819       H  0.30356172  0.65650392  0.50189360     0.15100
N1820       N  0.28345127  0.63377973  0.55522240     0.74200
O1821       O  0.22847320  0.58171343  0.42576076    -0.39200
O1822       O  0.19064199  0.62100248  0.43065641    -0.39200
O1823       O  0.31085710  0.61808052  0.56415209    -0.39900
O1824       O  0.27578476  0.65925485  0.56844537    -0.39900
C1825       C  0.16243554  0.96900808  0.26244984    -0.12200
C1826       C  0.18022935  0.94369504  0.27675596     0.04800
C1827       C  0.19909454  0.92180421  0.25838391    -0.07500
C1828       C  0.19882645  0.92486394  0.22631831    -0.08300
C1829       C  0.17969563  0.94939809  0.21198523    -0.02800
C1830       C  0.16189433  0.97204682  0.23041994     0.04000
N1831       N  0.14388729  0.99869543  0.21717947     0.66500
H1832       H  0.14860684  0.98657015  0.27624586     0.15400
H1833       H  0.21224246  0.90707221  0.21251748     0.15100
N1834       N  0.21542183  0.89458039  0.27160432     0.74200
O1835       O  0.11080695  0.99638898  0.20895921    -0.39200
O1836       O  0.15726033  0.02560140  0.22148038    -0.39200
O1837       O  0.19755592  0.86931179  0.27129286    -0.39900
O1838       O  0.24967236  0.89379445  0.27565305    -0.39900
C1839       C  0.28777638  0.88200948  0.49996917    -0.12200
C1840       C  0.27034596  0.85932042  0.51845488     0.04800
C1841       C  0.23503213  0.84910392  0.51066082    -0.07500
C1842       C  0.21688028  0.86260452  0.48564484    -0.08300
C1843       C  0.23392978  0.88576032  0.46757230    -0.02800
C1844       C  0.26972587  0.89539960  0.47470461     0.04000
N1845       N  0.28727408  0.91968998  0.45741654     0.66500
H1846       H  0.31504707  0.89011550  0.50573513     0.15400
H1847       H  0.18995944  0.85392610  0.47946227     0.15100
N1848       N  0.21913208  0.82277003  0.52589656     0.74200
O1849       O  0.27420582  0.94712792  0.45736338    -0.39200
O1850       O  0.31496293  0.91346947  0.44116010    -0.39200
O1851       O  0.19049912  0.82591889  0.54184811    -0.39900
O1852       O  0.23455631  0.79636265  0.52403441    -0.39900
C1853       C  0.11749474  0.96210755  0.49295562    -0.12200
C1854       C  0.11677499  0.98009965  0.46576209     0.04800
C1855       C  0.10821246  0.51314999  0.47020742    -0.07500
C1856       C  0.10972032  0.52735253  0.49929125    -0.08300
C1857       C  0.11805772  0.50992434  0.52604224    -0.02800
C1858       C  0.11858352  0.97626303  0.52206195     0.04000
N1859       N  0.12069912  0.95659782  0.54868896     0.66500
H1860       H  0.11895688  0.93673914  0.49170532     0.15400
H1861       H  0.10563180  0.55249758  0.50064462     0.15100
N1862       N  0.10008923  0.53211142  0.44388026     0.74200
O1863       O  0.09155023  0.94682017  0.56099091    -0.39200
O1864       O  0.15091767  0.94410412  0.55592145    -0.39200
O1865       O  0.06711058  0.53642226  0.43609353    -0.39900
O1866       O  0.14266309  0.04459701  0.43126334    -0.39900
C1867       C  0.24728857  0.78035935  0.35135897    -0.12200
C1868       C  0.25047194  0.76429354  0.37933077     0.04800
C1869       C  0.22954627  0.77429933  0.40466583    -0.07500
C1870       C  0.20707595  0.80098551  0.40191211    -0.08300
C1871       C  0.20510918  0.81814185  0.37414929    -0.02800
C1872       C  0.22479002  0.80680064  0.34848197     0.04000
N1873       N  0.22213158  0.82155435  0.31911437     0.66500
H1874       H  0.26247626  0.77227715  0.33144147     0.15400
H1875       H  0.19314887  0.80951052  0.42227119     0.15100
N1876       N  0.23349374  0.75947916  0.43401239     0.74200
O1877       O  0.25013308  0.83481954  0.30814678    -0.39200
O1878       O  0.19688781  0.81299859  0.30113177    -0.39200
O1879       O  0.25707880  0.76961400  0.45277754    -0.39900
O1880       O  0.20937592  0.74046917  0.44318405    -0.39900
C1881       C  0.26477028  0.56669298  0.35021443    -0.12200
C1882       C  0.29317686  0.57038586  0.37185917     0.04800
C1883       C  0.29954765  0.54576342  0.39319567    -0.07500
C1884       C  0.27625128  0.51956150  0.39375928    -0.08300
C1885       C  0.24612108  0.51730230  0.37368481    -0.02800
C1886       C  0.24113533  0.54093174  0.35118122     0.04000
N1887       N  0.21183966  0.53954426  0.32931503     0.66500
H1888       H  0.25926942  0.58486677  0.33331617     0.15400
H1889       H  0.27330178  0.00388484  0.41593437     0.15100
N1890       N  0.32838597  0.54750719  0.41541115     0.74200
O1891       O  0.18156972  0.55237535  0.33560337    -0.39200
O1892       O  0.21869898  0.53222543  0.30181176    -0.39200
O1893       O  0.32100924  0.55447786  0.44292342    -0.39900
O1894       O  0.35969671  0.53682719  0.40887275    -0.39900
C1895       C  0.79242008  0.56628684  0.72773334    -0.12200
C1896       C  0.81835699  0.54651456  0.71386937     0.04800
C1897       C  0.84295531  0.52969858  0.73296776    -0.07500
C1898       C  0.84192818  0.53374708  0.76489967    -0.08300
C1899       C  0.81637357  0.55393978  0.77876900    -0.02800
C1900       C  0.79113824  0.57003986  0.75970906     0.04000
N1901       N  0.76572018  0.59208364  0.77204135     0.66500
H1902       H  0.77353292  0.57978573  0.71363447     0.15400
H1903       H  0.86107968  0.52048623  0.77895799     0.15100
N1904       N  0.86856687  0.50774988  0.72053636     0.74200
O1905       O  0.77289771  0.62089475  0.76980134    -0.39200
O1906       O  0.73316329  0.58363310  0.77719785    -0.39200
O1907       O  0.90244182  0.51333524  0.72235231    -0.39900
O1908       O  0.85798287  0.48042099  0.71396231    -0.39900
C1909       C  0.97939292  0.60165224  0.61111832    -0.12200
C1910       C  0.96191659  0.57783747  0.62802782     0.04800
C1911       C  0.98363353  0.55705665  0.64566682    -0.07500
C1912       C  0.02185363  0.55862564  0.64395758    -0.08300
C1913       C  0.03929968  0.58032915  0.62455031    -0.02800
C1914       C  0.01769028  0.60286200  0.60890196     0.04000
N1915       N  0.03370251  0.62479715  0.58794795     0.66500
H1916       H  0.96330004  0.61779796  0.59725813     0.15400
H1917       H  0.03795989  0.54167398  0.65685869     0.15100
N1918       N  0.96743186  0.53385679  0.66508669     0.74200
O1919       O  0.04026679  0.61648582  0.56065017    -0.39200
O1920       O  0.03430870  0.65354767  0.59471726    -0.39200
O1921       O  0.96495851  0.50596727  0.65567076    -0.39900
O1922       O  0.96470983  0.53931733  0.69350260    -0.39900
C1923       C  0.76725969  0.63213349  0.47418119    -0.12200
C1924       C  0.73098120  0.62274136  0.46934236     0.04800
C1925       C  0.71419146  0.60244798  0.49114937    -0.07500
C1926       C  0.73335029  0.59313781  0.51742833    -0.08300
C1927       C  0.76944968  0.60255331  0.52220809    -0.02800
C1928       C  0.78663404  0.62218454  0.50018892     0.04000
N1929       N  0.82334953  0.63308976  0.50428820     0.66500
H1930       H  0.78063860  0.64760510  0.45784424     0.15400
H1931       H  0.72013382  0.57757123  0.53378605     0.15100
N1932       N  0.67891707  0.58887533  0.48613949     0.74200
O1933       O  0.84932327  0.61914179  0.49087469    -0.39200
O1934       O  0.82879002  0.65983203  0.51575757    -0.39200
O1935       O  0.67721405  0.55979200  0.48125769    -0.39900
O1936       O  0.65117082  0.60230232  0.49722985    -0.39900
C1937       C  0.79390103  0.68790657  0.59420191    -0.12200
C1938       C  0.79357056  0.66852230  0.62051557     0.04800
C1939       C  0.77147191  0.67766529  0.64571770    -0.07500
C1940       C  0.74864310  0.70415192  0.64334715    -0.08300
C1941       C  0.74773401  0.72251431  0.61648124    -0.02800
C1942       C  0.77136548  0.71461830  0.59201784     0.04000
N1943       N  0.77048028  0.73189085  0.56378867     0.66500
H1944       H  0.80996480  0.68123218  0.57430103     0.15400
H1945       H  0.73157762  0.71051487  0.66278062     0.15100
N1946       N  0.77202436  0.66043055  0.67398725     0.74200
O1947       O  0.79509800  0.75186182  0.55823657    -0.39200
O1948       O  0.74929050  0.72330229  0.54243886    -0.39200
O1949       O  0.79497816  0.66762836  0.69453526    -0.39900
O1950       O  0.74547635  0.64278115  0.68074206    -0.39900
C1951       C  0.73424687  0.92188559  0.63631297    -0.12200
C1952       C  0.70684948  0.91773736  0.61385316     0.04800
C1953       C  0.70091176  0.94226925  0.59231003    -0.07500
C1954       C  0.72304915  0.96930646  0.59303092    -0.08300
C1955       C  0.75188822  0.97221696  0.61435570    -0.02800
C1956       C  0.75683975  0.94825837  0.63648787     0.04000
N1957       N  0.78492503  0.95011462  0.65939241     0.66500
H1958       H  0.73955240  0.90381972  0.65336709     0.15400
H1959       H  0.71670022  0.48913109  0.57990243     0.15100
N1960       N  0.67369818  0.93971183  0.56877920     0.74200
O1961       O  0.77742726  0.96125169  0.68550655    -0.39200
O1962       O  0.81444707  0.93510676  0.65570267    -0.39200
O1963       O  0.64298216  0.95285879  0.57235390    -0.39900
O1964       O  0.68271451  0.92989232  0.54248193    -0.39900
C1965       C  0.79492791  0.91869618  0.22727048    -0.12200
C1966       C  0.81605035  0.94198801  0.21277108     0.04800
C1967       C  0.83778195  0.96197702  0.23107807    -0.07500
C1968       C  0.83854579  0.95806691  0.26293486    -0.08300
C1969       C  0.81760388  0.93479707  0.27750157    -0.02800
C1970       C  0.79549269  0.91494693  0.25932240     0.04000
N1971       N  0.77447060  0.89023417  0.27281762     0.66500
H1972       H  0.77840329  0.90281995  0.21362559     0.15400
H1973       H  0.85506707  0.97408183  0.27643375     0.15100
N1974       N  0.85822056  0.98721806  0.21794111     0.74200
O1975       O  0.74060585  0.89414598  0.27733929    -0.39200
O1976       O  0.78793552  0.86299817  0.27455350    -0.39200
O1977       O  0.84314808  0.01368753  0.21480877    -0.39900
O1978       O  0.89268546  0.98528738  0.21685659    -0.39900
C1979       C  0.97898979  0.88535854  0.37887272    -0.12200
C1980       C  0.95935551  0.91043525  0.36566905     0.04800
C1981       C  0.97925236  0.93408431  0.35002632    -0.07500
C1982       C  0.01761676  0.93377793  0.35041679    -0.08300
C1983       C  0.03729387  0.91037588  0.36619125    -0.02800
C1984       C  0.01750636  0.88518351  0.37945432     0.04000
N1985       N  0.03572296  0.86074931  0.39612437     0.66500
H1986       H  0.96448996  0.86685995  0.39091182     0.15400
H1987       H  0.03206336  0.95294276  0.33936603     0.15100
N1988       N  0.96107127  0.95943594  0.33468298     0.74200
O1989       O  0.04237514  0.86426148  0.42441656    -0.39200
O1990       O  0.03878379  0.83390634  0.38424825    -0.39200
O1991       O  0.96055040  0.98623000  0.34694469    -0.39900
O1992       O  0.95211368  0.95659824  0.30677168    -0.39900
C1993       C  0.88132991  0.52772945  0.49828630    -0.12200
C1994       C  0.88645480  0.50999465  0.52529091     0.04800
C1995       C  0.89247903  0.47741772  0.52255130    -0.07500
C1996       C  0.88819017  0.96192362  0.49246631    -0.08300
C1997       C  0.88138195  0.97929924  0.46543280    -0.02800
C1998       C  0.87896880  0.01233017  0.46780809     0.04000
N1999       N  0.87495021  0.03164318  0.44108487     0.66500
H2000       H  0.87705701  0.55285543  0.49975905     0.15400
H2001       H  0.89131990  0.93668233  0.49136290     0.15100
N2002       N  0.90060860  0.45856777  0.54896557     0.74200
O2003       O  0.84377362  0.04237034  0.43401866    -0.39200
O2004       O  0.90313482  0.04263329  0.42819040    -0.39200
O2005       O  0.86946869  0.94273315  0.56032740    -0.39900
O2006       O  0.93359302  0.45370628  0.55640593    -0.39900
C2007       C  0.73657924  0.85829293  0.46446929    -0.12200
C2008       C  0.76381102  0.88094357  0.46902692     0.04800
C2009       C  0.77598343  0.88730905  0.49923711    -0.07500
C2010       C  0.76091432  0.87107097  0.52406747    -0.08300
C2011       C  0.73381608  0.84829656  0.51953123    -0.02800
C2012       C  0.72194541  0.84157152  0.48925891     0.04000
N2013       N  0.69620411  0.81704855  0.48313568     0.66500
H2014       H  0.72811627  0.85214046  0.44132089     0.15400
H2015       H  0.76961340  0.87720670  0.54715960     0.15100
N2016       N  0.80343075  0.91037200  0.50518648     0.74200
O2017       O  0.70468007  0.78900486  0.48929191    -0.39200
O2018       O  0.66872943  0.82251831  0.46625359    -0.39200
O2019       O  0.79388185  0.93813540  0.51124096    -0.39900
O2020       O  0.83572483  0.90158981  0.51115069    -0.39900
C2021       C  0.71183729  0.50848960  0.38779711    -0.12200
C2022       C  0.74303267  0.50591598  0.36905689     0.04800
C2023       C  0.74866007  0.52894511  0.34611909    -0.07500
C2024       C  0.72652192  0.55577316  0.34512865    -0.08300
C2025       C  0.69767253  0.56028364  0.36615441    -0.02800
C2026       C  0.68856426  0.53495185  0.38599613     0.04000
N2027       N  0.65576465  0.53541009  0.40405113     0.66500
H2028       H  0.70429000  0.99037943  0.39942810     0.15400
H2029       H  0.73319602  0.57389239  0.32850381     0.15100
N2030       N  0.77650862  0.52525033  0.32327836     0.74200
O2031       O  0.62517117  0.53814878  0.39068219    -0.39200
O2032       O  0.65657952  0.52600997  0.43159599    -0.39200
O2033       O  0.76925507  0.51066992  0.29878645    -0.39900
O2034       O  0.80569458  0.54098134  0.32509478    -0.39900
C2035       C  0.77516990  0.80310849  0.35089055    -0.12200
C2036       C  0.79756729  0.81109205  0.37604052     0.04800
C2037       C  0.80008515  0.78936598  0.40080485    -0.07500
C2038       C  0.77846106  0.76190413  0.40084466    -0.08300
C2039       C  0.75372175  0.75569714  0.37681810    -0.02800
C2040       C  0.75338371  0.77608438  0.35116063     0.04000
N2041       N  0.73003003  0.77025074  0.32541556     0.66500
H2042       H  0.77295253  0.81883840  0.33131408     0.15400
H2043       H  0.77956509  0.74628402  0.42056317     0.15100
N2044       N  0.82229766  0.79580102  0.42712228     0.74200
O2045       O  0.70149914  0.78665002  0.32194352    -0.39200
O2046       O  0.74182351  0.75415165  0.30319680    -0.39200
O2047       O  0.80774877  0.80710797  0.45097740    -0.39900
O2048       O  0.85441842  0.78484484  0.42854483    -0.39900
loop_ 
_geom_bond_atom_site_label_1 
_geom_bond_atom_site_label_2 
_geom_bond_distance 
_geom_bond_site_symmetry_2 
_ccdc_geom_bond_type 
Fe1          O17   2.083       .  S
Fe1           O7   2.051       .  S
Fe1          O14   2.070       .  S
Fe1           O6   2.078       .  S
Fe1          O12   1.940       .  S
Fe2           O5   2.110       .  S
Fe2           O9   2.067       .  S
Fe2          O13   2.094       .  S
Fe2          O18   2.032       .  S
Fe2          O12   1.953       .  S
Fe3          O21   2.053       .  S
Fe3           O8   2.092       .  S
Fe3          O15   2.089       .  S
Fe3           O4   2.075       .  S
Fe3          O12   1.944       .  S
O4           C11   1.269       .  A
O5           C19   1.274       .  A
O6           C11   1.270       .  A
O7           C10   1.273       .  A
O8           C20   1.279       .  A
O9           C22   1.273       .  A
C10          O15   1.277       .  A
C10         C945   1.481       .  S
C11        C2022   1.492       .  S
O13          C16   1.275       .  A
O14          C16   1.272       .  A
C16         C973   1.498       .  S
O17          C22   1.273       .  A
O18          C20   1.267       .  A
C19          O21   1.267       .  A
C19        C1012   1.502       .  S
C20         C984   1.469       .  S
C22         C956   1.489       .  S
Fe23         O39   2.082       .  S
Fe23         O29   2.053       .  S
Fe23         O36   2.059       .  S
Fe23         O28   2.076   1_545  S
Fe23         O34   1.948       .  S
Fe24         O27   2.100       .  S
Fe24         O31   2.051       .  S
Fe24         O35   2.103       .  S
Fe24         O40   2.018       .  S
Fe24         O34   1.949       .  S
Fe25         O43   2.055       .  S
Fe25         O30   2.094       .  S
Fe25         O37   2.095       .  S
Fe25         O26   2.069       .  S
Fe25         O34   1.941       .  S
O26          C33   1.267   1_545  A
O27          C41   1.276       .  A
O28          C33   1.269       .  A
O29          C32   1.273       .  A
O30          C42   1.278       .  A
O31          C44   1.266       .  A
C32          O37   1.280       .  A
C32         C872   1.485       .  S
C33        C1955   1.489       .  S
O35          C38   1.279       .  A
O36          C38   1.271       .  A
C38         C970   1.492       .  S
O39          C44   1.271       .  A
O40          C42   1.262       .  A
C41          O43   1.267       .  A
C41         C914   1.496       .  S
C42         C903   1.469       .  S
C44         C886   1.482       .  S
Fe45         O61   2.063       .  S
Fe45         O51   2.084       .  S
Fe45         O58   2.090       .  S
Fe45         O50   2.051       .  S
Fe45         O56   1.941       .  S
Fe46         O49   2.022       .  S
Fe46         O53   2.096       .  S
Fe46         O57   2.053       .  S
Fe46         O62   2.095       .  S
Fe46         O56   1.946       .  S
Fe47         O65   2.095       .  S
Fe47         O52   2.049       .  S
Fe47         O59   2.058       .  S
Fe47         O48   2.098       .  S
Fe47         O56   1.943       .  S
O48          C55   1.278       .  A
O49          C63   1.263       .  A
O50          C55   1.275       .  A
O51          C54   1.270       .  A
O52          C64   1.266       .  A
O53          C66   1.277       .  A
C54          O59   1.266       .  A
C54        C1885   1.487       .  S
C55         C802   1.483       .  S
O57          C60   1.266       .  A
O58          C60   1.274       .  A
C60         C959   1.488       .  S
O61          C66   1.273       .  A
O62          C64   1.275       .  A
C63          O65   1.278       .  A
C63         C819   1.468       .  S
C64         C847   1.493       .  S
C66         C830   1.488       .  S
Fe67         O83   2.069       .  S
Fe67         O73   2.086       .  S
Fe67         O80   2.082       .  S
Fe67         O72   2.053       .  S
Fe67         O78   1.937       .  S
Fe68         O71   2.019       .  S
Fe68         O75   2.095       .  S
Fe68         O79   2.053       .  S
Fe68         O84   2.103       .  S
Fe68         O78   1.941       .  S
Fe69         O87   2.103       .  S
Fe69         O74   2.055       .  S
Fe69         O81   2.066       .  S
Fe69         O70   2.096       .  S
Fe69         O78   1.940       .  S
O70          C77   1.280       .  A
O71          C85   1.264       .  A
O72          C77   1.272       .  A
O73          C76   1.271       .  A
O74          C86   1.266       .  A
O75          C88   1.276       .  A
C76          O81   1.268       .  A
C76        C1787   1.485   1_545  S
C77         C746   1.487       .  S
O79          C82   1.268       .  A
O80          C82   1.274       .  A
C82         C889   1.482       .  S
O83          C88   1.272       .  A
O84          C86   1.276       .  A
C85          O87   1.279       .  A
C85         C788   1.476       .  S
C86         C774   1.496       .  S
C88         C833   1.495       .  S
Fe89        O105   2.084       .  S
Fe89         O95   2.049       .  S
Fe89        O102   2.064       .  S
Fe89         O94   2.083       .  S
Fe89        O100   1.942       .  S
Fe90         O93   2.098       .  S
Fe90         O97   2.067       .  S
Fe90        O101   2.095       .  S
Fe90        O106   2.026       .  S
Fe90        O100   1.949       .  S
Fe91        O109   2.052       .  S
Fe91         O96   2.097       .  S
Fe91        O103   2.106       .  S
Fe91         O92   2.068       .  S
Fe91        O100   1.945       .  S
O92          C99   1.266       .  A
O93         C107   1.275       .  A
O94          C99   1.270       .  A
O95          C98   1.273       .  A
O96         C108   1.278       .  A
O97         C110   1.269       .  A
C98         O103   1.280       .  A
C98         C704   1.484       .  S
C99         C844   1.486       .  S
O101        C104   1.276       .  A
O102        C104   1.273       .  A
C104        C735   1.490       .  S
O105        C110   1.274       .  A
O106        C108   1.265       .  A
C107        O109   1.268       .  A
C107        C858   1.496       .  S
C108        C791   1.481       .  S
C110        C718   1.494       .  S
Fe111       O127   2.083       .  S
Fe111       O117   2.054       .  S
Fe111       O124   2.055       .  S
Fe111       O116   2.090       .  S
Fe111       O122   1.949       .  S
Fe112       O115   2.099       .  S
Fe112       O119   2.062       .  S
Fe112       O123   2.099       .  S
Fe112       O128   2.028       .  S
Fe112       O122   1.961       .  S
Fe113       O131   2.052       .  S
Fe113       O118   2.093       .  S
Fe113       O125   2.109       .  S
Fe113       O114   2.079       .  S
Fe113       O122   1.944       .  S
O114        C121   1.266       .  A
O115        C129   1.275       .  A
O116        C121   1.269       .  A
O117        C120   1.274       .  A
O118        C130   1.279       .  A
O119        C132   1.268       .  A
C120        O125   1.283       .  A
C120        C679   1.497       .  S
C121        C777   1.491       .  S
O123        C126   1.277       .  A
O124        C126   1.275       .  A
C126        C732   1.493       .  S
O127        C132   1.269       .  A
O128        C130   1.264       .  A
C129        O131   1.268       .  A
C129        C760   1.498       .  S
C130        C816   1.474       .  S
C132        C690   1.490       .  S
Fe133       O149   2.057       .  S
Fe133       O139   2.086       .  S
Fe133       O146   2.085       .  S
Fe133       O138   2.048       .  S
Fe133       O144   1.959       .  S
Fe134       O137   2.026       .  S
Fe134       O141   2.106       .  S
Fe134       O145   2.064       .  S
Fe134       O150   2.101       .  S
Fe134       O144   1.963       .  S
Fe135       O153   2.095       .  S
Fe135       O140   2.057       .  S
Fe135       O147   2.079       .  S
Fe135       O136   2.105       .  S
Fe135       O144   1.950       .  S
O136        C143   1.282       .  A
O137        C151   1.262       .  A
O138        C143   1.273       .  A
O139        C142   1.269       .  A
O140        C152   1.269       .  A
O141        C154   1.280       .  A
C142        O147   1.266       .  A
C142       C1015   1.493       .  S
C143        C651   1.487       .  S
O145        C148   1.267       .  A
O146        C148   1.270       .  A
C148        C721   1.494       .  S
O149        C154   1.273       .  A
O150        C152   1.275       .  A
C151        O153   1.279       .  A
C151        C900   1.478       .  S
C152       C1001   1.503       .  S
C154        C662   1.487       .  S
Fe155       O171   2.060       .  S
Fe155       O161   2.096       .  S
Fe155       O168   2.088       .  S
Fe155       O160   2.059       .  S
Fe155       O166   1.933       .  S
Fe156       O159   2.032       .  S
Fe156       O163   2.090       .  S
Fe156       O167   2.061       .  S
Fe156       O172   2.116       .  S
Fe156       O166   1.954       .  S
Fe157       O175   2.093       .  S
Fe157       O162   2.039       .  S
Fe157       O169   2.067       .  S
Fe157       O158   2.091       .  S
Fe157       O166   1.934       .  S
O158        C165   1.276       .  A
O159        C173   1.265       .  A
O160        C165   1.273       .  A
O161        C164   1.274       .  A
O162        C174   1.264       .  A
O163        C176   1.273       .  A
C164        O169   1.268       .  A
C164        C917   1.487       .  S
C165        C634   1.486       .  S
O167        C170   1.272       .  A
O168        C170   1.277       .  A
C170        C693   1.489       .  S
O171        C176   1.273       .  A
O172        C174   1.275       .  A
C173        O175   1.277       .  A
C173        C987   1.468       .  S
C174        C928   1.498       .  S
C176        C665   1.493       .  S
Fe177       O193   2.059       .  S
Fe177       O183   2.085       .  S
Fe177       O190   2.083       .  S
Fe177       O182   2.052       .  S
Fe177       O188   1.944       .  S
Fe178       O181   2.033       .  S
Fe178       O185   2.093       .  S
Fe178       O189   2.061       .  S
Fe178       O194   2.095       .  S
Fe178       O188   1.957       .  S
Fe179       O197   2.089       .  S
Fe179       O184   2.048       .  S
Fe179       O191   2.074       .  S
Fe179       O180   2.090       .  S
Fe179       O188   1.944       .  S
O180        C187   1.277       .  A
O181        C195   1.268       .  A
O182        C187   1.271       .  A
O183        C186   1.272       .  A
O184        C196   1.266       .  A
O185        C198   1.274       .  A
C186        O191   1.268       .  A
C186       C1633   1.492       .  S
C187        C942   1.482       .  S
O189        C192   1.270       .  A
O190        C192   1.273       .  A
C192        C567   1.489       .  S
O193        C198   1.272       .  A
O194        C196   1.272       .  A
C195        O197   1.276       .  A
C195        C592   1.480       .  S
C196        C620   1.494       .  S
C198        C578   1.494       .  S
Fe199       O215   2.063       .  S
Fe199       O205   2.095       .  S
Fe199       O212   2.098       .  S
Fe199       O204   2.050       .  S
Fe199       O210   1.940       .  S
Fe200       O203   2.013       .  S
Fe200       O207   2.087       .  S
Fe200       O211   2.050       .  S
Fe200       O216   2.095       .  S
Fe200       O210   1.946       .  S
Fe201       O219   2.103       .  S
Fe201       O206   2.055       .  S
Fe201       O213   2.071       .  S
Fe201       O202   2.101       .  S
Fe201       O210   1.946       .  S
O202        C209   1.279       .  A
O203        C217   1.262       .  A
O204        C209   1.273       .  A
O205        C208   1.273       .  A
O206        C218   1.267       .  A
O207        C220   1.273       .  A
C208        O213   1.268       .  A
C208       C1574   1.490   1_545  S
C209        C875   1.488       .  S
O211        C214   1.268       .  A
O212        C214   1.276       .  A
C214        C511   1.485       .  S
O215        C220   1.272       .  A
O216        C218   1.274       .  A
C217        O219   1.278       .  A
C217        C525   1.474       .  S
C218        C536   1.496       .  S
C220        C581   1.485       .  S
Fe221       O237   2.086       .  S
Fe221       O227   2.042       .  S
Fe221       O234   2.059       .  S
Fe221       O226   2.095       .  S
Fe221       O232   1.939       .  S
Fe222       O225   2.107       .  S
Fe222       O229   2.055       .  S
Fe222       O233   2.095       .  S
Fe222       O238   2.020       .  S
Fe222       O232   1.945       .  S
Fe223       O241   2.050       .  S
Fe223       O228   2.103       .  S
Fe223       O235   2.104       .  S
Fe223       O224   2.070       .  S
Fe223       O232   1.934       .  S
O224        C231   1.268       .  A
O225        C239   1.275       .  A
O226        C231   1.273       .  A
O227        C230   1.271       .  A
O228        C240   1.281       .  A
O229        C242   1.267       .  A
C230        O235   1.281       .  A
C230        C805   1.482       .  S
C231       C1521   1.495       .  S
O233        C236   1.277       .  A
O234        C236   1.271       .  A
C236        C466   1.482       .  S
O237        C242   1.275       .  A
O238        C240   1.262       .  A
C239        O241   1.266       .  A
C239        C480   1.496       .  S
C240        C455   1.478       .  S
C242        C564   1.486       .  S
Fe243       O259   2.085       .  S
Fe243       O249   2.046       .  S
Fe243       O256   2.055       .  S
Fe243       O248   2.078       .  S
Fe243       O254   1.937       .  S
Fe244       O247   2.113       .  S
Fe244       O251   2.066       .  S
Fe244       O255   2.090       .  S
Fe244       O260   2.037       .  S
Fe244       O254   1.946       .  S
Fe245       O263   2.051       .  S
Fe245       O250   2.100       .  S
Fe245       O257   2.103       .  S
Fe245       O246   2.066       .  S
Fe245       O254   1.938       .  S
O246        C253   1.268       .  A
O247        C261   1.276       .  A
O248        C253   1.271       .  A
O249        C252   1.271       .  A
O250        C262   1.277       .  A
O251        C264   1.273       .  A
C252        O257   1.279       .  A
C252        C749   1.487       .  S
C253       C1437   1.479   1_545  S
O255        C258   1.275       .  A
O256        C258   1.269       .  A
C258        C469   1.491       .  S
O259        C264   1.274       .  A
O260        C262   1.265       .  A
C261        O263   1.268       .  A
C261        C427   1.502       .  S
C262        C441   1.470       .  S
C264        C508   1.487       .  S
Fe265       O281   2.070       .  S
Fe265       O271   2.095       .  S
Fe265       O278   2.088       .  S
Fe265       O270   2.059       .  S
Fe265       O276   1.939       .  S
Fe266       O269   2.042       .  S
Fe266       O273   2.090       .  S
Fe266       O277   2.071       .  S
Fe266       O282   2.112       .  S
Fe266       O276   1.948       .  S
Fe267       O285   2.094       .  S
Fe267       O272   2.045       .  S
Fe267       O279   2.062       .  S
Fe267       O268   2.094       .  S
Fe267       O276   1.939       .  S
O268        C275   1.277       .  A
O269        C283   1.266       .  A
O270        C275   1.273       .  A
O271        C274   1.273       .  A
O272        C284   1.267       .  A
O273        C286   1.275       .  A
C274        O279   1.267       .  A
C274        C483   1.484       .  S
C275        C707   1.483       .  S
O277        C280   1.273       .  A
O278        C280   1.275       .  A
C280        C382   1.493       .  S
O281        C286   1.273       .  A
O282        C284   1.277       .  A
C283        O285   1.276       .  A
C283        C438   1.470       .  S
C284        C494   1.499       .  S
C286        C399   1.495       .  S
Fe287       O303   2.064       .  S
Fe287       O293   2.087       .  S
Fe287       O300   2.094       .  S
Fe287       O292   2.052       .  S
Fe287       O298   1.939       .  S
Fe288       O291   2.020       .  S
Fe288       O295   2.089       .  S
Fe288       O299   2.053       .  S
Fe288       O304   2.095       .  S
Fe288       O298   1.949       .  S
Fe289       O307   2.103       .  S
Fe289       O294   2.056       .  S
Fe289       O301   2.076       .  S
Fe289       O290   2.107       .  S
Fe289       O298   1.947       .  S
O290        C297   1.280       .  A
O291        C305   1.262       .  A
O292        C297   1.275       .  A
O293        C296   1.272       .  A
O294        C306   1.268       .  A
O295        C308   1.274       .  A
C296        O301   1.269       .  A
C296        C424   1.493       .  S
C297        C676   1.496       .  S
O299        C302   1.268       .  A
O300        C302   1.275       .  A
C302        C368   1.487       .  S
O303        C308   1.271       .  A
O304        C306   1.274       .  A
C305        O307   1.280       .  A
C305        C452   1.477       .  S
C306        C410   1.495       .  S
C308        C396   1.486       .  S
Fe309       O325   2.099       .  S
Fe309       O315   2.051       .  S
Fe309       O322   2.064       .  S
Fe309       O314   2.088       .  S
Fe309       O320   1.942       .  S
Fe310       O313   2.109       .  S
Fe310       O317   2.058       .  S
Fe310       O321   2.100       .  S
Fe310       O326   2.024       .  S
Fe310       O320   1.948       .  S
Fe311       O329   2.041       .  S
Fe311       O316   2.098       .  S
Fe311       O323   2.098       .  S
Fe311       O312   2.062       .  S
Fe311       O320   1.941       .  S
O312        C319   1.265       .  A
O313        C327   1.276       .  A
O314        C319   1.271       .  A
O315        C318   1.275       .  A
O316        C328   1.279       .  A
O317        C330   1.269       .  A
C318        O323   1.279       .  A
C318        C648   1.484       .  S
C319        C623   1.486       .  S
O321        C324   1.278       .  A
O322        C324   1.273       .  A
C324        C354   1.496       .  S
O325        C330   1.275       .  A
O326        C328   1.264       .  A
C327        O329   1.265       .  A
C327        C606   1.499       .  S
C328        C522   1.478       .  S
C330        C385   1.492       .  S
Fe331       O347   2.090       .  S
Fe331       O337   2.055       .  S
Fe331       O344   2.066       .  S
Fe331       O336   2.077       .  S
Fe331       O342   1.947       .  S
Fe332       O335   2.104       .  S
Fe332       O339   2.063       .  S
Fe332       O343   2.093       .  S
Fe332       O348   2.029       .  S
Fe332       O342   1.950       .  S
Fe333       O351   2.056       .  S
Fe333       O338   2.093       .  S
Fe333       O345   2.100       .  S
Fe333       O334   2.066       .  S
Fe333       O342   1.946       .  S
O334        C341   1.266       .  A
O335        C349   1.274       .  A
O336        C341   1.271       .  A
O337        C340   1.273       .  A
O338        C350   1.276       .  A
O339        C352   1.272       .  A
C340        O345   1.280       .  A
C340        C637   1.487       .  S
C341        C539   1.480       .  S
O343        C346   1.274       .  A
O344        C346   1.270       .  A
C346        C357   1.492       .  S
O347        C352   1.275       .  A
O348        C350   1.267       .  A
C349        O351   1.268       .  A
C349        C553   1.502       .  S
C350        C595   1.479       .  S
C352        C371   1.488       .  S
C353        C354   1.409       .  A
C353        C358   1.404   1_554  A
C353        H360   1.085       .  S
C354        C355   1.415       .  A
C355        C356   1.403   1_554  A
C355        N362   1.429       .  S
C356        C357   1.406       .  A
C356        H361   1.085       .  S
C357        C358   1.413       .  A
C358        N359   1.429       .  S
N359        O363   1.262       .  A
N359        O364   1.262       .  A
N362        O366   1.262       .  A
N362        O365   1.262       .  A
C367        C368   1.404       .  A
C367        C372   1.402       .  A
C367        H374   1.085       .  S
C368        C369   1.415       .  A
C369        C370   1.402       .  A
C369        N376   1.429       .  S
C370        C371   1.405       .  A
C370        H375   1.084       .  S
C371        C372   1.414       .  A
C372        N373   1.429       .  S
N373        O377   1.262       .  A
N373        O378   1.262       .  A
N376        O380   1.262       .  A
N376        O379   1.262       .  A
C381        C382   1.408       .  A
C381        C386   1.404       .  A
C381        H388   1.084       .  S
C382        C383   1.414       .  A
C383        C384   1.404       .  A
C383        N390   1.429       .  S
C384        C385   1.407       .  A
C384        H389   1.084       .  S
C385        C386   1.413       .  A
C386        N387   1.429       .  S
N387        O391   1.262       .  A
N387        O392   1.262       .  A
N390        O394   1.262       .  A
N390        O393   1.262       .  A
C395        C396   1.405       .  A
C395        C400   1.402   1_556  A
C395        H402   1.084       .  S
C396        C397   1.410       .  A
C397        C398   1.403       .  A
C397        N404   1.430       .  S
C398        C399   1.410   1_556  A
C398        H403   1.084   1_556  S
C399        C400   1.415       .  A
C400        N401   1.429       .  S
N401        O405   1.262       .  A
N401        O406   1.262       .  A
N404        O408   1.262       .  A
N404        O407   1.262       .  A
C409        C410   1.411       .  A
C409        C414   1.407       .  A
C409        H416   1.084       .  S
C410        C411   1.416       .  A
C411        C412   1.399       .  A
C411        N418   1.427       .  S
C412        C413   1.401       .  A
C412        H417   1.085       .  S
C413       C1277   1.482       .  S
C413        C414   1.409       .  A
C414       N1439   1.429       .  S
N415       C1438   1.429   1_545  S
N415        O419   1.262   1_545  A
N415        O420   1.262       .  A
N418        O422   1.262       .  A
N418        O421   1.262       .  A
C423        C424   1.406       .  A
C423        C428   1.412       .  A
C423        H430   1.084       .  S
C424        C425   1.412       .  A
C425        C426   1.399       .  A
C425        N432   1.430       .  S
C426        C427   1.408       .  A
C426        H431   1.084       .  S
C427        C428   1.419       .  A
C428        N429   1.428       .  S
N429        O433   1.262       .  A
N429        O434   1.262       .  A
N432        O436   1.262       .  A
N432        O435   1.262       .  A
C437        C438   1.402       .  A
C437        C442   1.398       .  A
C437        H444   1.085       .  S
C438        C439   1.409   1_554  A
C439        C440   1.399       .  A
C439        N446   1.428       .  S
C440        C441   1.402       .  A
C440        H445   1.085       .  S
C441        C442   1.411   1_556  A
C442        N443   1.429       .  S
N443        O447   1.261       .  A
N443        O448   1.262       .  A
N446        O450   1.262       .  A
N446        O449   1.261       .  A
C451        C452   1.397       .  A
C451        C456   1.396       .  A
C451        H458   1.084       .  S
C452        C453   1.419       .  A
C453        C454   1.394   1_556  A
C453        N460   1.430       .  S
C454        C455   1.397       .  A
C454        H459   1.084       .  S
C455        C456   1.422   1_554  A
C456        N457   1.431       .  S
N457        O461   1.261       .  A
N457        O462   1.261   1_556  A
N460        O464   1.262   1_556  A
N460        O463   1.262       .  A
C465        C466   1.401       .  A
C465        C470   1.399   1_554  A
C465        H472   1.083       .  S
C466       C1491   1.409       .  A
C467        C468   1.401   1_554  A
C467       C1490   1.408   1_545  A
C467        N474   1.429       .  S
C468        C469   1.409       .  A
C468        H473   1.084       .  S
C469       C1494   1.417   1_545  A
C470       C1493   1.417       .  A
C470        N471   1.429       .  S
N471        O475   1.262       .  A
N471       O1500   1.262       .  A
N474        O478   1.262       .  A
N474       O1501   1.262       .  A
O476       N1495   1.262       .  A
O477       N1498   1.262       .  A
C479        C480   1.409       .  A
C479        C484   1.403       .  A
C479        H486   1.084       .  S
C480        C481   1.418       .  A
C481        C482   1.405       .  A
C481        N488   1.427       .  S
C482        C483   1.401       .  A
C482        H487   1.085       .  S
C483        C484   1.410       .  A
C484        N485   1.429       .  S
N485        O489   1.262       .  A
N485        O490   1.262       .  A
N488        O492   1.262       .  A
N488        O491   1.262       .  A
C493        C494   1.408       .  A
C493        C498   1.400       .  A
C493        H500   1.084       .  S
C494        C495   1.418       .  A
C495        C496   1.409       .  A
C495        N502   1.428       .  S
C496        C497   1.406       .  A
C496       H1525   1.084       .  S
C497       C1255   1.491   1_545  S
C497        C498   1.411       .  A
C498        N499   1.428       .  S
N499        O503   1.262       .  A
N499        O504   1.262       .  A
H501       C1520   1.084       .  S
N502        O506   1.262       .  A
N502        O505   1.262       .  A
C507        C508   1.404       .  A
C507        C512   1.403   1_455  A
C507        H514   1.084       .  S
C508        C509   1.414       .  A
C509        C510   1.402   1_455  A
C509        N516   1.429       .  S
C510        C511   1.403       .  A
C510        H515   1.084       .  S
C511        C512   1.415       .  A
C512        N513   1.430       .  S
N513        O517   1.262       .  A
N513        O518   1.262       .  A
N516        O520   1.262       .  A
N516        O519   1.262       .  A
C521        C522   1.413   1_556  A
C521        C526   1.399       .  A
C521        H528   1.083       .  S
C522        C523   1.405       .  A
C523        C524   1.393   1_554  A
C523        N530   1.429       .  S
C524        C525   1.409       .  A
C524        H529   1.083       .  S
C525        C526   1.404       .  A
C526        N527   1.430       .  S
N527        O531   1.262       .  A
N527        O532   1.262       .  A
N530        O534   1.262       .  A
N530        O533   1.262       .  A
C535        C536   1.411       .  A
C535        C540   1.407       .  A
C535        H542   1.084       .  S
C536        C537   1.416       .  A
C537        C538   1.397       .  A
C537        N544   1.426       .  S
C538        C539   1.399       .  A
C538        H543   1.085       .  S
C539        C540   1.409       .  A
C540        N541   1.428       .  S
N541        O545   1.262       .  A
N541        O546   1.262       .  A
N544        O548   1.262       .  A
N544        O547   1.262       .  A
C549        C550   1.404       .  A
C549        C554   1.410       .  A
C549       H1580   1.084       .  S
C550       C1232   1.491       .  S
C550        C551   1.411       .  A
C551        C552   1.403       .  A
C551        N558   1.430       .  S
C552        C553   1.409       .  A
C552        H557   1.084       .  S
C553        C554   1.421       .  A
C554        N555   1.429       .  S
N555        O559   1.262       .  A
N555        O560   1.262       .  A
H556       C1573   1.084       .  S
N558        O562   1.262       .  A
N558        O561   1.262       .  A
C563        C564   1.403       .  A
C563        C568   1.397   1_455  A
C563        H570   1.085       .  S
C564        C565   1.415       .  A
C565        C566   1.404   1_455  A
C565        N572   1.429       .  S
C566        C567   1.407       .  A
C566        H571   1.084       .  S
C567        C568   1.414       .  A
C568        N569   1.428       .  S
N569        O573   1.261       .  A
N569        O574   1.262       .  A
N572        O576   1.262       .  A
N572        O575   1.262       .  A
C577        C582   1.398   1_554  A
C577       C1602   1.405   1_545  A
C577        H584   1.084       .  S
C578        C579   1.418   1_554  A
C578       C1601   1.405       .  A
C579        C580   1.404       .  A
C579        N586   1.429       .  S
C580       C1605   1.403       .  A
C580        H585   1.084       .  S
C581        C582   1.413       .  A
C581       C1604   1.403   1_545  A
C582        N583   1.428       .  S
N583        O587   1.261   1_556  A
N583        O588   1.262   1_556  A
N586        O590   1.262   1_556  A
N586        O589   1.261       .  A
C591        C592   1.405   1_556  A
C591        C596   1.394       .  A
C591        H598   1.094       .  S
C592        C593   1.412       .  A
C593        C594   1.395   1_554  A
C593        N600   1.429       .  S
C594        C595   1.407       .  A
C594        H599   1.090   1_556  S
C595        C596   1.411       .  A
C596        N597   1.429       .  S
N597        O601   1.262       .  A
N597        O602   1.262       .  A
N600        O604   1.262       .  A
N600        O603   1.262       .  A
C605        C606   1.408       .  A
C605        C610   1.398       .  A
C605        H612   1.083       .  S
C606        C607   1.417       .  A
C607        C608   1.412       .  A
C607        N614   1.429       .  S
C608        C609   1.408       .  A
C608        H613   1.084       .  S
C609       C1210   1.492   1_545  S
C609        C610   1.411       .  A
C610       N1635   1.429       .  S
N611       C1634   1.429       .  S
N611       O1639   1.262       .  A
N611        O616   1.262       .  A
N614        O618   1.262       .  A
N614        O617   1.262       .  A
O615       N1635   1.262       .  A
C619        C620   1.407       .  A
C619        C624   1.398       .  A
C619        H626   1.084       .  S
C620        C621   1.418       .  A
C621        C622   1.408       .  A
C621        N628   1.429       .  S
C622        C623   1.405       .  A
C622        H627   1.084       .  S
C623        C624   1.410       .  A
C624        N625   1.430       .  S
N625        O629   1.262       .  A
N625        O630   1.262       .  A
N628        O632   1.262       .  A
N628        O631   1.262       .  A
C633        C634   1.403       .  A
C633        C638   1.400       .  A
C633        H640   1.084       .  S
C634        C635   1.414       .  A
C635        C636   1.404       .  A
C635        N642   1.429       .  S
C636        C637   1.405       .  A
C636        H641   1.084       .  S
C637        C638   1.414       .  A
C638        N639   1.429       .  S
N639        O643   1.262       .  A
N639        O644   1.262       .  A
N642        O646   1.262       .  A
N642        O645   1.262       .  A
C647        C648   1.401       .  A
C647        C652   1.396       .  A
C647        H654   1.085       .  S
C648        C649   1.413       .  A
C649        C650   1.404       .  A
C649        N656   1.428       .  S
C650        C651   1.406       .  A
C650        H655   1.084       .  S
C651        C652   1.415       .  A
C652        N653   1.428       .  S
N653        O657   1.261       .  A
N653        O658   1.261       .  A
N656        O660   1.262       .  A
N656        O659   1.262       .  A
C661        C662   1.404       .  A
C661        C666   1.407       .  A
C661        H668   1.084       .  S
C662        C663   1.410       .  A
C663        C664   1.397       .  A
C663        N670   1.423       .  S
C664        C665   1.402       .  A
C664        H669   1.084       .  S
C665        C666   1.418       .  A
C666        N667   1.429       .  S
N667        O671   1.261       .  A
N667        O672   1.262       .  A
N670        O674   1.261       .  A
N670        O673   1.262       .  A
C675        C676   1.404       .  A
C675        C680   1.397       .  A
C675        H682   1.084       .  S
C676        C677   1.416       .  A
C677        C678   1.407       .  A
C677        N684   1.427       .  S
C678        C679   1.407       .  A
C678        H683   1.084       .  S
C679        C680   1.416       .  A
C680        N681   1.426       .  S
N681        O685   1.261       .  A
N681        O686   1.262       .  A
N684        O688   1.262       .  A
N684        O687   1.261       .  A
C689        C690   1.407       .  A
C689        C694   1.404       .  A
C689        H696   1.084       .  S
C690        C691   1.416       .  A
C691        C692   1.400       .  A
C691        N698   1.429       .  S
C692        C693   1.404       .  A
C692        H697   1.084       .  S
C693        C694   1.414       .  A
C694        N695   1.429       .  S
N695        O699   1.262       .  A
N695        O700   1.262       .  A
N698        O702   1.261       .  A
N698        O701   1.262       .  A
C703        C704   1.405       .  A
C703        C708   1.399       .  A
C703        H710   1.085       .  S
C704        C705   1.412       .  A
C705        C706   1.404       .  A
C705        N712   1.429       .  S
C706        C707   1.406       .  A
C706        H711   1.084       .  S
C707        C708   1.411       .  A
C708        N709   1.430       .  S
N709        O713   1.262       .  A
N709        O714   1.262       .  A
N712        O716   1.262       .  A
N712        O715   1.262       .  A
C717        C718   1.406       .  A
C717        C722   1.400       .  A
C717        H724   1.084       .  S
C718        C719   1.415       .  A
C719        C720   1.405       .  A
C719        N726   1.428       .  S
C720        C721   1.407       .  A
C720        H725   1.084       .  S
C721        C722   1.414       .  A
C722        N723   1.428       .  S
N723        O727   1.261       .  A
N723        O728   1.262       .  A
N726        O730   1.262       .  A
N726        O729   1.262       .  A
C731        C732   1.402       .  A
C731        C736   1.398       .  A
C731        H738   1.084       .  S
C732        C733   1.418       .  A
C733        C734   1.407       .  A
C733        N740   1.429       .  S
C734        C735   1.406       .  A
C734        H739   1.084       .  S
C735        C736   1.414       .  A
C736        N737   1.428       .  S
N737        O741   1.262       .  A
N737        O742   1.261       .  A
N740        O744   1.262       .  A
N740        O743   1.262       .  A
C745        C746   1.405       .  A
C745        C750   1.401       .  A
C745        H752   1.084       .  S
C746        C747   1.415       .  A
C747        C748   1.400       .  A
C747        N754   1.430       .  S
C748        C749   1.406       .  A
C748        H753   1.084       .  S
C749        C750   1.413       .  A
C750        N751   1.429       .  S
N751        O755   1.262       .  A
N751        O756   1.262       .  A
N754        O758   1.262       .  A
N754        O757   1.262       .  A
C759        C760   1.408       .  A
C759        C764   1.401       .  A
C759        H766   1.084       .  S
C760        C761   1.418       .  A
C761        C762   1.408       .  A
C761        N768   1.428       .  S
C762        C763   1.404       .  A
C762       H1791   1.084       .  S
C763       C1100   1.489       .  S
C763        C764   1.412       .  A
C764        N765   1.430       .  S
N765        O769   1.262       .  A
N765        O770   1.262       .  A
H767       C1786   1.084       .  S
N768        O772   1.262       .  A
N768        O771   1.262       .  A
C773        C774   1.406       .  A
C773        C778   1.407       .  A
C773        H780   1.084       .  S
C774        C775   1.415       .  A
C775        C776   1.406       .  A
C775        N782   1.429       .  S
C776        C777   1.405       .  A
C776        H781   1.085       .  S
C777        C778   1.414       .  A
C778        N779   1.429       .  S
N779        O783   1.262       .  A
N779        O784   1.262       .  A
N782        O786   1.262       .  A
N782        O785   1.262       .  A
C787        C788   1.409       .  A
C787        C792   1.394       .  A
C787        H794   1.085       .  S
C788        C789   1.404       .  A
C789        C790   1.396       .  A
C789        N796   1.429       .  S
C790        C791   1.412       .  A
C790        H795   1.084       .  S
C791        C792   1.407       .  A
C792        N793   1.428       .  S
N793        O797   1.262       .  A
N793        O798   1.261       .  A
N796        O800   1.262       .  A
N796        O799   1.262       .  A
C801        C802   1.403       .  A
C801        C806   1.396       .  A
C801        H808   1.084       .  S
C802        C803   1.415       .  A
C803        C804   1.403       .  A
C803        N810   1.429       .  S
C804        C805   1.404       .  A
C804        H809   1.084       .  S
C805        C806   1.414       .  A
C806        N807   1.430       .  S
N807        O811   1.262       .  A
N807        O812   1.262       .  A
N810        O814   1.261       .  A
N810        O813   1.262       .  A
C815        C816   1.410       .  A
C815        C820   1.399       .  A
C815        H822   1.083       .  S
C816        C817   1.404       .  A
C817        C818   1.396       .  A
C817        N824   1.428       .  S
C818        C819   1.407       .  A
C818        H823   1.084       .  S
C819        C820   1.403       .  A
C820        N821   1.430       .  S
N821        O825   1.262       .  A
N821        O826   1.262       .  A
N824        O828   1.261       .  A
N824        O827   1.262       .  A
C829        C830   1.405       .  A
C829        C834   1.403       .  A
C829        H836   1.084       .  S
C830       C1855   1.411       .  A
C831        C832   1.403       .  A
C831       C1854   1.414   1_545  A
C831        N838   1.429       .  S
C832        C833   1.408       .  A
C832        H837   1.084       .  S
C833       C1858   1.414   1_545  A
C834       C1857   1.416       .  A
C834        N835   1.429       .  S
N835        O839   1.262       .  A
N835        O840   1.262       .  A
N838       O1866   1.262       .  A
N838        O841   1.262       .  A
O842       N1862   1.262       .  A
C843        C844   1.404       .  A
C843        C848   1.401       .  A
C843        H850   1.085       .  S
C844        C845   1.410       .  A
C845        C846   1.404       .  A
C845        N852   1.427       .  S
C846        C847   1.408       .  A
C846        H851   1.084       .  S
C847        C848   1.417       .  A
C848        N849   1.430       .  S
N849        O853   1.262       .  A
N849        O854   1.262       .  A
N852        O856   1.261       .  A
N852        O855   1.262       .  A
C857        C858   1.408       .  A
C857        C862   1.401       .  A
C857        H864   1.084       .  S
C858        C859   1.419       .  A
C859        C860   1.407       .  A
C859        N866   1.428       .  S
C860        C861   1.403       .  A
C860       H1889   1.084       .  S
C861       C1078   1.486   1_545  S
C861        C862   1.412       .  A
C862        N863   1.430       .  S
N863        O867   1.262       .  A
N863        O868   1.262       .  A
H865       C1884   1.084       .  S
N866        O870   1.261       .  A
N866        O869   1.262       .  A
C871        C872   1.403       .  A
C871        C876   1.400       .  A
C871        H878   1.085       .  S
C872        C873   1.413       .  A
C873        C874   1.400       .  A
C873        N880   1.429       .  S
C874        C875   1.406       .  A
C874        H879   1.084       .  S
C875        C876   1.412       .  A
C876        N877   1.425       .  S
N877        O881   1.260       .  A
N877        O882   1.262       .  A
N880        O884   1.262   1_545  A
N880        O883   1.261       .  A
C885        C886   1.406       .  A
C885        C890   1.401   1_655  A
C885        H892   1.084       .  S
C886        C887   1.411       .  A
C887        C888   1.396   1_655  A
C887        N894   1.428       .  S
C888        C889   1.404       .  A
C888        H893   1.084       .  S
C889        C890   1.414       .  A
C890        N891   1.429       .  S
N891        O895   1.262       .  A
N891        O896   1.262       .  A
N894        O898   1.261       .  A
N894        O897   1.262       .  A
C899        C900   1.399       .  A
C899        C904   1.395       .  A
C899        H906   1.085       .  S
C900        C901   1.423       .  A
C901        C902   1.395       .  A
C901        N908   1.431       .  S
C902        C903   1.392       .  A
C902        H907   1.085       .  S
C903        C904   1.415       .  A
C904        N905   1.429       .  S
N905        O909   1.262       .  A
N905        O910   1.262       .  A
N908        O912   1.260       .  A
N908        O911   1.261       .  A
C913        C914   1.409       .  A
C913        C918   1.407       .  A
C913        H920   1.083       .  S
C914        C915   1.416       .  A
C915        C916   1.404       .  A
C915        N922   1.430       .  S
C916        C917   1.403       .  A
C916        H921   1.085       .  S
C917        C918   1.411       .  A
C918        N919   1.429       .  S
N919        O923   1.262       .  A
N919        O924   1.262       .  A
N922        O926   1.262       .  A
N922        O925   1.262       .  A
C927        C928   1.408       .  A
C927        C932   1.395       .  A
C927        H934   1.084       .  S
C928        C929   1.416       .  A
C929        C930   1.411       .  A
C929        N936   1.428       .  S
C930        C931   1.409       .  A
C930       H1959   1.084       .  S
C931       C1057   1.494       .  S
C931        C932   1.413       .  A
C932        N933   1.429       .  S
N933        O937   1.262       .  A
N933        O938   1.262       .  A
H935       C1954   1.084       .  S
N936        O940   1.262       .  A
N936        O939   1.262       .  A
C941        C942   1.406       .  A
C941        C946   1.403       .  A
C941        H948   1.084       .  S
C942        C943   1.412       .  A
C943        C944   1.396       .  A
C943        N950   1.429       .  S
C944        C945   1.403       .  A
C944        H949   1.085       .  S
C945        C946   1.412       .  A
C946        N947   1.429       .  S
N947        O951   1.262       .  A
N947        O952   1.262       .  A
N950        O954   1.261       .  A
N950        O953   1.261       .  A
C955        C956   1.405       .  A
C955        C960   1.403   1_655  A
C955        H962   1.084       .  S
C956        C957   1.415       .  A
C957        C958   1.400   1_655  A
C957        N964   1.430       .  S
C958        C959   1.404       .  A
C958        H963   1.084       .  S
C959        C960   1.416       .  A
C960        N961   1.429       .  S
N961        O965   1.262       .  A
N961        O966   1.262       .  A
N964        O968   1.262       .  A
N964        O967   1.262       .  A
C969        C970   1.406       .  A
C969       C1998   1.405       .  A
C969        H976   1.084       .  S
C970        C971   1.413   1_545  A
C971       C1996   1.403       .  A
C971        N978   1.429       .  S
C972        C973   1.409       .  A
C972       C1995   1.403       .  A
C972        H977   1.084       .  S
C973        C974   1.415       .  A
C974       C1993   1.405       .  A
C974        N975   1.429       .  S
N975        O979   1.262       .  A
N975        O980   1.262       .  A
N978        O982   1.262       .  A
N978       O2005   1.262       .  A
O981       N2002   1.262       .  A
C983        C984   1.402       .  A
C983        C988   1.397       .  A
C983        H990   1.085       .  S
C984        C985   1.411       .  A
C985        C986   1.394       .  A
C985        N992   1.428       .  S
C986        C987   1.401       .  A
C986        H991   1.085       .  S
C987        C988   1.412       .  A
C988        N989   1.432       .  S
N989        O993   1.262       .  A
N989        O994   1.262       .  A
N992        O996   1.261       .  A
N992        O995   1.262       .  A
C997        C998   1.406       .  A
C997       C1002   1.412       .  A
C997       H2028   1.084   1_545  S
C998       C1035   1.496   1_545  S
C998        C999   1.415       .  A
C999       C1000   1.401       .  A
C999       N1006   1.430       .  S
C1000      C1001   1.408       .  A
C1000      H1005   1.084       .  S
C1001      C1002   1.418       .  A
C1002      N1003   1.429       .  S
N1003      O1007   1.262       .  A
N1003      O1008   1.260       .  A
H1004      C2021   1.084       .  S
N1006      O1010   1.262       .  A
N1006      O1009   1.262       .  A
C1011      C1012   1.406       .  A
C1011      C1016   1.399       .  A
C1011      H1018   1.084       .  S
C1012      C1013   1.421       .  A
C1013      C1014   1.414       .  A
C1013      N1020   1.428       .  S
C1014      C1015   1.406       .  A
C1014      H1019   1.084       .  S
C1015      C1016   1.410       .  A
C1016      N1017   1.427       .  S
N1017      O1021   1.261       .  A
N1017      O1022   1.262       .  A
N1020      O1024   1.262       .  A
N1020      O1023   1.262       .  A
Fe1025     O1041   2.081       .  S
Fe1025     O1031   2.047       .  S
Fe1025     O1038   2.068       .  S
Fe1025     O1030   2.079       .  S
Fe1025     O1036   1.943       .  S
Fe1026     O1029   2.106       .  S
Fe1026     O1033   2.069       .  S
Fe1026     O1037   2.097       .  S
Fe1026     O1042   2.031       .  S
Fe1026     O1036   1.954       .  S
Fe1027     O1045   2.056       .  S
Fe1027     O1032   2.089       .  S
Fe1027     O1039   2.089       .  S
Fe1027     O1028   2.078       .  S
Fe1027     O1036   1.948       .  S
O1028      C1035   1.269       .  A
O1029      C1043   1.274       .  A
O1030      C1035   1.269       .  A
O1031      C1034   1.274       .  A
O1032      C1044   1.279       .  A
O1033      C1046   1.272       .  A
C1034      O1039   1.277       .  A
C1034      C1969   1.480       .  S
O1037      C1040   1.276       .  A
O1038      C1040   1.272       .  A
C1040      C1997   1.497       .  S
O1041      C1046   1.272       .  A
O1042      C1044   1.266       .  A
C1043      O1045   1.268       .  A
C1043      C2036   1.502       .  S
C1044      C2008   1.471       .  S
C1046      C1980   1.492       .  S
Fe1047     O1063   2.087       .  S
Fe1047     O1053   2.052       .  S
Fe1047     O1060   2.059       .  S
Fe1047     O1052   2.079       .  S
Fe1047     O1058   1.947       .  S
Fe1048     O1051   2.100       .  S
Fe1048     O1055   2.053       .  S
Fe1048     O1059   2.100       .  S
Fe1048     O1064   2.018       .  S
Fe1048     O1058   1.949       .  S
Fe1049     O1067   2.057       .  S
Fe1049     O1054   2.096       .  S
Fe1049     O1061   2.096       .  S
Fe1049     O1050   2.071       .  S
Fe1049     O1058   1.942       .  S
O1050      C1057   1.267       .  A
O1051      C1065   1.276       .  A
O1052      C1057   1.270       .  A
O1053      C1056   1.273       .  A
O1054      C1066   1.279       .  A
O1055      C1068   1.267       .  A
C1056      O1061   1.280       .  A
C1056      C1896   1.486       .  S
O1059      C1062   1.278       .  A
O1060      C1062   1.271       .  A
C1062      C1994   1.490       .  S
O1063      C1068   1.272       .  A
O1064      C1066   1.262       .  A
C1065      O1067   1.267       .  A
C1065      C1938   1.495       .  S
C1066      C1927   1.471       .  S
C1068      C1910   1.483       .  S
Fe1069     O1085   2.061       .  S
Fe1069     O1075   2.082       .  S
Fe1069     O1082   2.091       .  S
Fe1069     O1074   2.050       .  S
Fe1069     O1080   1.945       .  S
Fe1070     O1073   2.024       .  S
Fe1070     O1077   2.093       .  S
Fe1070     O1081   2.057       .  S
Fe1070     O1086   2.092       .  S
Fe1070     O1080   1.951       .  S
Fe1071     O1089   2.092       .  S
Fe1071     O1076   2.061       .  S
Fe1071     O1083   2.071       .  S
Fe1071     O1072   2.095       .  S
Fe1071     O1080   1.945       .  S
O1072      C1079   1.279       .  A
O1073      C1087   1.264       .  A
O1074      C1079   1.274       .  A
O1075      C1078   1.269       .  A
O1076      C1088   1.268       .  A
O1077      C1090   1.276       .  A
C1078      O1083   1.268       .  A
C1079      C1826   1.478       .  S
O1081      C1084   1.268       .  A
O1082      C1084   1.275       .  A
C1084      C1983   1.491       .  S
O1085      C1090   1.270       .  A
O1086      C1088   1.274       .  A
C1087      O1089   1.277       .  A
C1087      C1843   1.466       .  S
C1088      C1871   1.491       .  S
C1090      C1854   1.492       .  S
Fe1091     O1107   2.066       .  S
Fe1091     O1097   2.084       .  S
Fe1091     O1104   2.080       .  S
Fe1091     O1096   2.052       .  S
Fe1091     O1102   1.940       .  S
Fe1092     O1095   2.024       .  S
Fe1092     O1099   2.096       .  S
Fe1092     O1103   2.056       .  S
Fe1092     O1108   2.102       .  S
Fe1092     O1102   1.945       .  S
Fe1093     O1111   2.101       .  S
Fe1093     O1098   2.053       .  S
Fe1093     O1105   2.069       .  S
Fe1093     O1094   2.095       .  S
Fe1093     O1102   1.942       .  S
O1094      C1101   1.279       .  A
O1095      C1109   1.265       .  A
O1096      C1101   1.272       .  A
O1097      C1100   1.271       .  A
O1098      C1110   1.266       .  A
O1099      C1112   1.276       .  A
C1100      O1105   1.268       .  A
C1101      C1770   1.488       .  S
O1103      C1106   1.268       .  A
O1104      C1106   1.273       .  A
C1106      C1913   1.482       .  S
O1107      C1112   1.272       .  A
O1108      C1110   1.276       .  A
C1109      O1111   1.279       .  A
C1109      C1812   1.478       .  S
C1110      C1798   1.495       .  S
C1112      C1857   1.497       .  S
Fe1113     O1129   2.080       .  S
Fe1113     O1119   2.048       .  S
Fe1113     O1126   2.055       .  S
Fe1113     O1118   2.083       .  S
Fe1113     O1124   1.936       .  S
Fe1114     O1117   2.096       .  S
Fe1114     O1121   2.058       .  S
Fe1114     O1125   2.093       .  S
Fe1114     O1130   2.029       .  S
Fe1114     O1124   1.947       .  S
Fe1115     O1133   2.047       .  S
Fe1115     O1120   2.098       .  S
Fe1115     O1127   2.105       .  S
Fe1115     O1116   2.063       .  S
Fe1115     O1124   1.940       .  S
O1116      C1123   1.266       .  A
O1117      C1131   1.273       .  A
O1118      C1123   1.271       .  A
O1119      C1122   1.272       .  A
O1120      C1132   1.277       .  A
O1121      C1134   1.269       .  A
C1122      O1127   1.279       .  A
C1122      C1728   1.491       .  S
C1123      C1868   1.475       .  S
O1125      C1128   1.274       .  A
O1126      C1128   1.271       .  A
C1128      C1759   1.490       .  S
O1129      C1134   1.274       .  A
O1130      C1132   1.266       .  A
C1131      O1133   1.267       .  A
C1131      C1882   1.494       .  S
C1132      C1815   1.477       .  S
C1134      C1742   1.487       .  S
Fe1135     O1151   2.086       .  S
Fe1135     O1141   2.048       .  S
Fe1135     O1148   2.056       .  S
Fe1135     O1140   2.090       .  S
Fe1135     O1146   1.947       .  S
Fe1136     O1139   2.099       .  S
Fe1136     O1143   2.059       .  S
Fe1136     O1147   2.097       .  S
Fe1136     O1152   2.025       .  S
Fe1136     O1146   1.956       .  S
Fe1137     O1155   2.049       .  S
Fe1137     O1142   2.095       .  S
Fe1137     O1149   2.107       .  S
Fe1137     O1138   2.076       .  S
Fe1137     O1146   1.941       .  S
O1138      C1145   1.266       .  A
O1139      C1153   1.274       .  A
O1140      C1145   1.270       .  A
O1141      C1144   1.273       .  A
O1142      C1154   1.279       .  A
O1143      C1156   1.268       .  A
C1144      O1149   1.282       .  A
C1144      C1703   1.496       .  S
C1145      C1801   1.491       .  S
O1147      C1150   1.277       .  A
O1148      C1150   1.274       .  A
C1150      C1756   1.488       .  S
O1151      C1156   1.271       .  A
O1152      C1154   1.264       .  A
C1153      O1155   1.267       .  A
C1153      C1784   1.495       .  S
C1154      C1840   1.472       .  S
C1156      C1714   1.488       .  S
Fe1157     O1173   2.057       .  S
Fe1157     O1163   2.086       .  S
Fe1157     O1170   2.082       .  S
Fe1157     O1162   2.043       .  S
Fe1157     O1168   1.956       .  S
Fe1158     O1161   2.028       .  S
Fe1158     O1165   2.103       .  S
Fe1158     O1169   2.057       .  S
Fe1158     O1174   2.099       .  S
Fe1158     O1168   1.958       .  S
Fe1159     O1177   2.101       .  S
Fe1159     O1164   2.058       .  S
Fe1159     O1171   2.081       .  S
Fe1159     O1160   2.104       .  S
Fe1159     O1168   1.944       .  S
O1160      C1167   1.282       .  A
O1161      C1175   1.264       .  A
O1162      C1167   1.271       .  A
O1163      C1166   1.270       .  A
O1164      C1176   1.269       .  A
O1165      C1178   1.279       .  A
C1166      O1171   1.268       .  A
C1166      C2039   1.493       .  S
C1167      C1675   1.485       .  S
O1169      C1172   1.267       .  A
O1170      C1172   1.270       .  A
C1172      C1745   1.486       .  S
O1173      C1178   1.272       .  A
O1174      C1176   1.273       .  A
C1175      O1177   1.281       .  A
C1175      C1924   1.478       .  S
C1176      C2025   1.502       .  S
C1178      C1686   1.484       .  S
Fe1179     O1195   2.053       .  S
Fe1179     O1185   2.099       .  S
Fe1179     O1192   2.087       .  S
Fe1179     O1184   2.049       .  S
Fe1179     O1190   1.932       .  S
Fe1180     O1183   2.032       .  S
Fe1180     O1187   2.090       .  S
Fe1180     O1191   2.059       .  S
Fe1180     O1196   2.106       .  S
Fe1180     O1190   1.955       .  S
Fe1181     O1199   2.094       .  S
Fe1181     O1186   2.042       .  S
Fe1181     O1193   2.065       .  S
Fe1181     O1182   2.103       .  S
Fe1181     O1190   1.936       .  S
O1182      C1189   1.278       .  A
O1183      C1197   1.265       .  A
O1184      C1189   1.272       .  A
O1185      C1188   1.274       .  A
O1186      C1198   1.266       .  A
O1187      C1200   1.272       .  A
C1188      O1193   1.267       .  A
C1188      C1941   1.487       .  S
C1189      C1658   1.493       .  S
O1191      C1194   1.270       .  A
O1192      C1194   1.276       .  A
C1194      C1717   1.488       .  S
O1195      C1200   1.272       .  A
O1196      C1198   1.274       .  A
C1197      O1199   1.278       .  A
C1197      C2011   1.472       .  S
C1198      C1952   1.496       .  S
C1200      C1689   1.490       .  S
Fe1201     O1217   2.054       .  S
Fe1201     O1207   2.078       .  S
Fe1201     O1214   2.074       .  S
Fe1201     O1206   2.049       .  S
Fe1201     O1212   1.945       .  S
Fe1202     O1205   2.030       .  S
Fe1202     O1209   2.095       .  S
Fe1202     O1213   2.065       .  S
Fe1202     O1218   2.094       .  S
Fe1202     O1212   1.958       .  S
Fe1203     O1221   2.081       .  S
Fe1203     O1208   2.049       .  S
Fe1203     O1215   2.074       .  S
Fe1203     O1204   2.087       .  S
Fe1203     O1212   1.948       .  S
O1204      C1211   1.277       .  A
O1205      C1219   1.267       .  A
O1206      C1211   1.272       .  A
O1207      C1210   1.269       .  A
O1208      C1220   1.267       .  A
O1209      C1222   1.275       .  A
C1210      O1215   1.267       .  A
C1211      C1966   1.480       .  S
O1213      C1216   1.270       .  A
O1214      C1216   1.270       .  A
C1216      C1591   1.488       .  S
O1217      C1222   1.273       .  A
O1218      C1220   1.273       .  A
C1219      O1221   1.275       .  A
C1219      C1616   1.475       .  S
C1220      C1644   1.494       .  S
C1222      C1602   1.493       .  S
Fe1223     O1239   2.064       .  S
Fe1223     O1229   2.093       .  S
Fe1223     O1236   2.093       .  S
Fe1223     O1228   2.051       .  S
Fe1223     O1234   1.939       .  S
Fe1224     O1227   2.013       .  S
Fe1224     O1231   2.090       .  S
Fe1224     O1235   2.053       .  S
Fe1224     O1240   2.095       .  S
Fe1224     O1234   1.948       .  S
Fe1225     O1243   2.101       .  S
Fe1225     O1230   2.056       .  S
Fe1225     O1237   2.074       .  S
Fe1225     O1226   2.099       .  S
Fe1225     O1234   1.947       .  S
O1226      C1233   1.279       .  A
O1227      C1241   1.262       .  A
O1228      C1233   1.273       .  A
O1229      C1232   1.273       .  A
O1230      C1242   1.267       .  A
O1231      C1244   1.274       .  A
C1232      O1237   1.269       .  A
C1233      C1899   1.488       .  S
O1235      C1238   1.268       .  A
O1236      C1238   1.276       .  A
C1238      C1535   1.486       .  S
O1239      C1244   1.272       .  A
O1240      C1242   1.275       .  A
C1241      O1243   1.278       .  A
C1241      C1549   1.475       .  S
C1242      C1560   1.496       .  S
C1244      C1605   1.488       .  S
Fe1245     O1261   2.092       .  S
Fe1245     O1251   2.035       .  S
Fe1245     O1258   2.048       .  S
Fe1245     O1250   2.093       .  S
Fe1245     O1256   1.942       .  S
Fe1246     O1249   2.106       .  S
Fe1246     O1253   2.049       .  S
Fe1246     O1257   2.095       .  S
Fe1246     O1262   2.018       .  S
Fe1246     O1256   1.947       .  S
Fe1247     O1265   2.050       .  S
Fe1247     O1252   2.105       .  S
Fe1247     O1259   2.104       .  S
Fe1247     O1248   2.067       .  S
Fe1247     O1256   1.931       .  S
O1248      C1255   1.267       .  A
O1249      C1263   1.275       .  A
O1250      C1255   1.272       .  A
O1251      C1254   1.270       .  A
O1252      C1264   1.282       .  A
O1253      C1266   1.266       .  A
C1254      O1259   1.282       .  A
C1254      C1829   1.475       .  S
O1257      C1260   1.277       .  A
O1258      C1260   1.269       .  A
C1260      C1490   1.478       .  S
O1261      C1266   1.277       .  A
O1262      C1264   1.261       .  A
C1263      O1265   1.266       .  A
C1263      C1504   1.496       .  S
C1264      C1479   1.476       .  S
C1266      C1588   1.485       .  S
Fe1267     O1283   2.087       .  S
Fe1267     O1273   2.045       .  S
Fe1267     O1280   2.053       .  S
Fe1267     O1272   2.082       .  S
Fe1267     O1278   1.937       .  S
Fe1268     O1271   2.114       .  S
Fe1268     O1275   2.063       .  S
Fe1268     O1279   2.097       .  S
Fe1268     O1284   2.031       .  S
Fe1268     O1278   1.946       .  S
Fe1269     O1287   2.050       .  S
Fe1269     O1274   2.098       .  S
Fe1269     O1281   2.105       .  S
Fe1269     O1270   2.069       .  S
Fe1269     O1278   1.938       .  S
O1270      C1277   1.267       .  A
O1271      C1285   1.277       .  A
O1272      C1277   1.271       .  A
O1273      C1276   1.272       .  A
O1274      C1286   1.278       .  A
O1275      C1288   1.271       .  A
C1276      O1281   1.280       .  A
C1276      C1773   1.489       .  S
O1279      C1282   1.276       .  A
O1280      C1282   1.269       .  A
C1282      C1493   1.494       .  S
O1283      C1288   1.274       .  A
O1284      C1286   1.264       .  A
C1285      O1287   1.268       .  A
C1285      C1451   1.502       .  S
C1286      C1465   1.470       .  S
C1288      C1532   1.488       .  S
Fe1289     O1305   2.064       .  S
Fe1289     O1295   2.092       .  S
Fe1289     O1302   2.086       .  S
Fe1289     O1294   2.053       .  S
Fe1289     O1300   1.939       .  S
Fe1290     O1293   2.035       .  S
Fe1290     O1297   2.094       .  S
Fe1290     O1301   2.067       .  S
Fe1290     O1306   2.118       .  S
Fe1290     O1300   1.949       .  S
Fe1291     O1309   2.098       .  S
Fe1291     O1296   2.047       .  S
Fe1291     O1303   2.060       .  S
Fe1291     O1292   2.097       .  S
Fe1291     O1300   1.938       .  S
O1292      C1299   1.279       .  A
O1293      C1307   1.265       .  A
O1294      C1299   1.271       .  A
O1295      C1298   1.272       .  A
O1296      C1308   1.266       .  A
O1297      C1310   1.275       .  A
C1298      O1303   1.267       .  A
C1298      C1507   1.483       .  S
C1299      C1731   1.490       .  S
O1301      C1304   1.273       .  A
O1302      C1304   1.275       .  A
C1304      C1406   1.490       .  S
O1305      C1310   1.271       .  A
O1306      C1308   1.277       .  A
C1307      O1309   1.278       .  A
C1307      C1462   1.471       .  S
C1308      C1518   1.504       .  S
C1310      C1423   1.494       .  S
Fe1311     O1327   2.062       .  S
Fe1311     O1317   2.088       .  S
Fe1311     O1324   2.092       .  S
Fe1311     O1316   2.048       .  S
Fe1311     O1322   1.937       .  S
Fe1312     O1315   2.019       .  S
Fe1312     O1319   2.087       .  S
Fe1312     O1323   2.049       .  S
Fe1312     O1328   2.089       .  S
Fe1312     O1322   1.949       .  S
Fe1313     O1331   2.101       .  S
Fe1313     O1318   2.055       .  S
Fe1313     O1325   2.075       .  S
Fe1313     O1314   2.103       .  S
Fe1313     O1322   1.946       .  S
O1314      C1321   1.279       .  A
O1315      C1329   1.262       .  A
O1316      C1321   1.273       .  A
O1317      C1320   1.273       .  A
O1318      C1330   1.267       .  A
O1319      C1332   1.274       .  A
C1320      O1325   1.270       .  A
C1320      C1448   1.493       .  S
C1321      C1700   1.494       .  S
O1323      C1326   1.266       .  A
O1324      C1326   1.276       .  A
C1326      C1392   1.484       .  S
O1327      C1332   1.271       .  A
O1328      C1330   1.273       .  A
C1329      O1331   1.279       .  A
C1329      C1476   1.474       .  S
C1330      C1434   1.492       .  S
C1332      C1420   1.485       .  S
Fe1333     O1349   2.095       .  S
Fe1333     O1339   2.051       .  S
Fe1333     O1346   2.069       .  S
Fe1333     O1338   2.087       .  S
Fe1333     O1344   1.943       .  S
Fe1334     O1337   2.110       .  S
Fe1334     O1341   2.056       .  S
Fe1334     O1345   2.102       .  S
Fe1334     O1350   2.019       .  S
Fe1334     O1344   1.947       .  S
Fe1335     O1353   2.041       .  S
Fe1335     O1340   2.096       .  S
Fe1335     O1347   2.096       .  S
Fe1335     O1336   2.062       .  S
Fe1335     O1344   1.941       .  S
O1336      C1343   1.265       .  A
O1337      C1351   1.276       .  A
O1338      C1343   1.270       .  A
O1339      C1342   1.275       .  A
O1340      C1352   1.279       .  A
O1341      C1354   1.268       .  A
C1342      O1347   1.279       .  A
C1342      C1672   1.481       .  S
C1343      C1647   1.487       .  S
O1345      C1348   1.279       .  A
O1346      C1348   1.274       .  A
C1348      C1378   1.498       .  S
O1349      C1354   1.274       .  A
O1350      C1352   1.263       .  A
C1351      O1353   1.265       .  A
C1351      C1630   1.499       .  S
C1352      C1546   1.477       .  S
C1354      C1409   1.489       .  S
Fe1355     O1371   2.090       .  S
Fe1355     O1361   2.062       .  S
Fe1355     O1368   2.073       .  S
Fe1355     O1360   2.080       .  S
Fe1355     O1366   1.942       .  S
Fe1356     O1359   2.108       .  S
Fe1356     O1363   2.061       .  S
Fe1356     O1367   2.095       .  S
Fe1356     O1372   2.023       .  S
Fe1356     O1366   1.947       .  S
Fe1357     O1375   2.053       .  S
Fe1357     O1362   2.091       .  S
Fe1357     O1369   2.099       .  S
Fe1357     O1358   2.064       .  S
Fe1357     O1366   1.943       .  S
O1358      C1365   1.266       .  A
O1359      C1373   1.275       .  A
O1360      C1365   1.271       .  A
O1361      C1364   1.274       .  A
O1362      C1374   1.276       .  A
O1363      C1376   1.272       .  A
C1364      O1369   1.279       .  A
C1364      C1661   1.495       .  S
C1365      C1563   1.480       .  S
O1367      C1370   1.275       .  A
O1368      C1370   1.272       .  A
C1370      C1381   1.497       .  S
O1371      C1376   1.274       .  A
O1372      C1374   1.265       .  A
C1373      O1375   1.268       .  A
C1373      C1577   1.501       .  S
C1374      C1619   1.477       .  S
C1376      C1395   1.489       .  S
C1377      C1378   1.409       .  A
C1377      C1382   1.406   1_554  A
C1377      H1384   1.085       .  S
C1378      C1379   1.415       .  A
C1379      C1380   1.405   1_554  A
C1379      N1386   1.429       .  S
C1380      C1381   1.408       .  A
C1380      H1385   1.085       .  S
C1381      C1382   1.414       .  A
C1382      N1383   1.429       .  S
N1383      O1387   1.262       .  A
N1383      O1388   1.262       .  A
N1386      O1390   1.262       .  A
N1386      O1389   1.262       .  A
C1391      C1392   1.400       .  A
C1391      C1396   1.399       .  A
C1391      H1398   1.085       .  S
C1392      C1393   1.414       .  A
C1393      C1394   1.402       .  A
C1393      N1400   1.429       .  S
C1394      C1395   1.406       .  A
C1394      H1399   1.085       .  S
C1395      C1396   1.416       .  A
C1396      N1397   1.429       .  S
N1397      O1401   1.262       .  A
N1397      O1402   1.262       .  A
N1400      O1404   1.262       .  A
N1400      O1403   1.262       .  A
C1405      C1406   1.407       .  A
C1405      C1410   1.402       .  A
C1405      H1412   1.084       .  S
C1406      C1407   1.413       .  A
C1407      C1408   1.403       .  A
C1407      N1414   1.429       .  S
C1408      C1409   1.406       .  A
C1408      H1413   1.084       .  S
C1409      C1410   1.412       .  A
C1410      N1411   1.429       .  S
N1411      O1415   1.262       .  A
N1411      O1416   1.262       .  A
N1414      O1418   1.262       .  A
N1414      O1417   1.262       .  A
C1419      C1420   1.404       .  A
C1419      C1424   1.401   1_556  A
C1419      H1426   1.084       .  S
C1420      C1421   1.410       .  A
C1421      C1422   1.404       .  A
C1421      N1428   1.430       .  S
C1422      C1423   1.410   1_556  A
C1422      H1427   1.084       .  S
C1423      C1424   1.415       .  A
C1424      N1425   1.429       .  S
N1425      O1429   1.262       .  A
N1425      O1430   1.262       .  A
N1428      O1432   1.262       .  A
N1428      O1431   1.262       .  A
C1433      C1434   1.411       .  A
C1433      C1438   1.405       .  A
C1433      H1440   1.084       .  S
C1434      C1435   1.416       .  A
C1435      C1436   1.398       .  A
C1435      N1442   1.429       .  S
C1436      C1437   1.401       .  A
C1436      H1441   1.085       .  S
C1437      C1438   1.409       .  A
N1439      O1443   1.262       .  A
N1439      O1444   1.262       .  A
N1442      O1446   1.262       .  A
N1442      O1445   1.262       .  A
C1447      C1448   1.406       .  A
C1447      C1452   1.411       .  A
C1447      H1454   1.084       .  S
C1448      C1449   1.412       .  A
C1449      C1450   1.400       .  A
C1449      N1456   1.430       .  S
C1450      C1451   1.409       .  A
C1450      H1455   1.084       .  S
C1451      C1452   1.419       .  A
C1452      N1453   1.428       .  S
N1453      O1457   1.262       .  A
N1453      O1458   1.262       .  A
N1456      O1460   1.262       .  A
N1456      O1459   1.262       .  A
C1461      C1462   1.401       .  A
C1461      C1466   1.398       .  A
C1461      H1468   1.085       .  S
C1462      C1463   1.411   1_554  A
C1463      C1464   1.397       .  A
C1463      N1470   1.428       .  S
C1464      C1465   1.401       .  A
C1464      H1469   1.085       .  S
C1465      C1466   1.412   1_556  A
C1466      N1467   1.429       .  S
N1467      O1471   1.261       .  A
N1467      O1472   1.262       .  A
N1470      O1474   1.262       .  A
N1470      O1473   1.261       .  A
C1475      C1476   1.396       .  A
C1475      C1480   1.396       .  A
C1475      H1482   1.084       .  S
C1476      C1477   1.418       .  A
C1477      C1478   1.393   1_556  A
C1477      N1484   1.430       .  S
C1478      C1479   1.397       .  A
C1478      H1483   1.085       .  S
C1479      C1480   1.423   1_554  A
C1480      N1481   1.431       .  S
N1481      O1485   1.261       .  A
N1481      O1486   1.261   1_556  A
N1484      O1488   1.262   1_556  A
N1484      O1487   1.262       .  A
C1489      C1490   1.400   1_556  A
C1489      C1494   1.399       .  A
C1489      H1496   1.082   1_556  S
C1491      C1492   1.404   1_554  A
C1491      N1498   1.429       .  S
C1492      C1493   1.410       .  A
C1492      H1497   1.084       .  S
C1494      N1495   1.429       .  S
N1495      O1499   1.262       .  A
N1498      O1502   1.262       .  A
C1503      C1504   1.410       .  A
C1503      C1508   1.403       .  A
C1503      H1510   1.084       .  S
C1504      C1505   1.418       .  A
C1505      C1506   1.404       .  A
C1505      N1512   1.426       .  S
C1506      C1507   1.400       .  A
C1506      H1511   1.084       .  S
C1507      C1508   1.410       .  A
C1508      N1509   1.429       .  S
N1509      O1513   1.262       .  A
N1509      O1514   1.262       .  A
N1512      O1516   1.262       .  A
N1512      O1515   1.262       .  A
C1517      C1518   1.410       .  A
C1517      C1522   1.402       .  A
C1517      H1524   1.084       .  S
C1518      C1519   1.418       .  A
C1519      C1520   1.410       .  A
C1519      N1526   1.428       .  S
C1520      C1521   1.407       .  A
C1521      C1522   1.412       .  A
C1522      N1523   1.430       .  S
N1523      O1527   1.262       .  A
N1523      O1528   1.262       .  A
N1526      O1530   1.262       .  A
N1526      O1529   1.262       .  A
C1531      C1532   1.406       .  A
C1531      C1536   1.403   1_455  A
C1531      H1538   1.084       .  S
C1532      C1533   1.414       .  A
C1533      C1534   1.400   1_455  A
C1533      N1540   1.429       .  S
C1534      C1535   1.404       .  A
C1534      H1539   1.084       .  S
C1535      C1536   1.415       .  A
C1536      N1537   1.430       .  S
N1537      O1541   1.262       .  A
N1537      O1542   1.262       .  A
N1540      O1544   1.262       .  A
N1540      O1543   1.262       .  A
C1545      C1546   1.413   1_556  A
C1545      C1550   1.398       .  A
C1545      H1552   1.083       .  S
C1546      C1547   1.405       .  A
C1547      C1548   1.392   1_554  A
C1547      N1554   1.429       .  S
C1548      C1549   1.409       .  A
C1548      H1553   1.083       .  S
C1549      C1550   1.404       .  A
C1550      N1551   1.430       .  S
N1551      O1555   1.262       .  A
N1551      O1556   1.262       .  A
N1554      O1558   1.262       .  A
N1554      O1557   1.262       .  A
C1559      C1560   1.411       .  A
C1559      C1564   1.407       .  A
C1559      H1566   1.084       .  S
C1560      C1561   1.416       .  A
C1561      C1562   1.398       .  A
C1561      N1568   1.425       .  S
C1562      C1563   1.399       .  A
C1562      H1567   1.085       .  S
C1563      C1564   1.410       .  A
C1564      N1565   1.429       .  S
N1565      O1569   1.262       .  A
N1565      O1570   1.262       .  A
N1568      O1572   1.262       .  A
N1568      O1571   1.262       .  A
C1573      C1574   1.404       .  A
C1573      C1578   1.410       .  A
C1574      C1575   1.410       .  A
C1575      C1576   1.402       .  A
C1575      N1582   1.430       .  S
C1576      C1577   1.409       .  A
C1576      H1581   1.084       .  S
C1577      C1578   1.420       .  A
C1578      N1579   1.429       .  S
N1579      O1583   1.262       .  A
N1579      O1584   1.262       .  A
N1582      O1586   1.262       .  A
N1582      O1585   1.262       .  A
C1587      C1588   1.401       .  A
C1587      C1592   1.396   1_455  A
C1587      H1594   1.085       .  S
C1588      C1589   1.416       .  A
C1589      C1590   1.404   1_455  A
C1589      N1596   1.429       .  S
C1590      C1591   1.406       .  A
C1590      H1595   1.084       .  S
C1591      C1592   1.415       .  A
C1592      N1593   1.427       .  S
N1593      O1597   1.261       .  A
N1593      O1598   1.262       .  A
N1596      O1600   1.262       .  A
N1596      O1599   1.262       .  A
C1601      C1606   1.400   1_554  A
C1601      H1608   1.084       .  S
C1602      C1603   1.418   1_554  A
C1603      C1604   1.404       .  A
C1603      N1610   1.429       .  S
C1604      H1609   1.085       .  S
C1605      C1606   1.414       .  A
C1606      N1607   1.428       .  S
N1607      O1611   1.261   1_556  A
N1607      O1612   1.262   1_556  A
N1610      O1614   1.262       .  A
N1610      O1613   1.261       .  A
C1615      C1616   1.404   1_556  A
C1615      C1620   1.393       .  A
C1615      H1622   1.091       .  S
C1616      C1617   1.411       .  A
C1617      C1618   1.393   1_554  A
C1617      N1624   1.430       .  S
C1618      C1619   1.407       .  A
C1618      H1623   1.089   1_556  S
C1619      C1620   1.411       .  A
C1620      N1621   1.429       .  S
N1621      O1625   1.262       .  A
N1621      O1626   1.262       .  A
N1624      O1628   1.262       .  A
N1624      O1627   1.262       .  A
C1629      C1630   1.408       .  A
C1629      C1634   1.398       .  A
C1629      H1636   1.083       .  S
C1630      C1631   1.417       .  A
C1631      C1632   1.412       .  A
C1631      N1638   1.428       .  S
C1632      C1633   1.407       .  A
C1632      H1637   1.084       .  S
C1633      C1634   1.410       .  A
N1635      O1640   1.262       .  A
N1638      O1642   1.262       .  A
N1638      O1641   1.262       .  A
C1643      C1644   1.407       .  A
C1643      C1648   1.399       .  A
C1643      H1650   1.084       .  S
C1644      C1645   1.418       .  A
C1645      C1646   1.407       .  A
C1645      N1652   1.429       .  S
C1646      C1647   1.405       .  A
C1646      H1651   1.084       .  S
C1647      C1648   1.411       .  A
C1648      N1649   1.430       .  S
N1649      O1653   1.262       .  A
N1649      O1654   1.262       .  A
N1652      O1656   1.262       .  A
N1652      O1655   1.262       .  A
C1657      C1658   1.405       .  A
C1657      C1662   1.397       .  A
C1657      H1664   1.084       .  S
C1658      C1659   1.415       .  A
C1659      C1660   1.407       .  A
C1659      N1666   1.429       .  S
C1660      C1661   1.408       .  A
C1660      H1665   1.084       .  S
C1661      C1662   1.413       .  A
C1662      N1663   1.426       .  S
N1663      O1667   1.262       .  A
N1663      O1668   1.262       .  A
N1666      O1670   1.262       .  A
N1666      O1669   1.262       .  A
C1671      C1672   1.400       .  A
C1671      C1676   1.395       .  A
C1671      H1678   1.085       .  S
C1672      C1673   1.413       .  A
C1673      C1674   1.403       .  A
C1673      N1680   1.428       .  S
C1674      C1675   1.405       .  A
C1674      H1679   1.084       .  S
C1675      C1676   1.416       .  A
C1676      N1677   1.428       .  S
N1677      O1681   1.261       .  A
N1677      O1682   1.261       .  A
N1680      O1684   1.262       .  A
N1680      O1683   1.262       .  A
C1685      C1686   1.405       .  A
C1685      C1690   1.408       .  A
C1685      H1692   1.084       .  S
C1686      C1687   1.408       .  A
C1687      C1688   1.394       .  A
C1687      N1694   1.422       .  S
C1688      C1689   1.401       .  A
C1688      H1693   1.084       .  S
C1689      C1690   1.417       .  A
C1690      N1691   1.429       .  S
N1691      O1695   1.261       .  A
N1691      O1696   1.262       .  A
N1694      O1698   1.261       .  A
N1694      O1697   1.262       .  A
C1699      C1700   1.404       .  A
C1699      C1704   1.395       .  A
C1699      H1706   1.084       .  S
C1700      C1701   1.416       .  A
C1701      C1702   1.406       .  A
C1701      N1708   1.428       .  S
C1702      C1703   1.408       .  A
C1702      H1707   1.084       .  S
C1703      C1704   1.416       .  A
C1704      N1705   1.427       .  S
N1705      O1709   1.262       .  A
N1705      O1710   1.262       .  A
N1708      O1712   1.262       .  A
N1708      O1711   1.262       .  A
C1713      C1714   1.407       .  A
C1713      C1718   1.403       .  A
C1713      H1720   1.084       .  S
C1714      C1715   1.415       .  A
C1715      C1716   1.400       .  A
C1715      N1722   1.430       .  S
C1716      C1717   1.404       .  A
C1716      H1721   1.084       .  S
C1717      C1718   1.414       .  A
C1718      N1719   1.429       .  S
N1719      O1723   1.262       .  A
N1719      O1724   1.262       .  A
N1722      O1726   1.262       .  A
N1722      O1725   1.262       .  A
C1727      C1728   1.406       .  A
C1727      C1732   1.399       .  A
C1727      H1734   1.084       .  S
C1728      C1729   1.414       .  A
C1729      C1730   1.403       .  A
C1729      N1736   1.429       .  S
C1730      C1731   1.407       .  A
C1730      H1735   1.084       .  S
C1731      C1732   1.415       .  A
C1732      N1733   1.430       .  S
N1733      O1737   1.262       .  A
N1733      O1738   1.262       .  A
N1736      O1740   1.262       .  A
N1736      O1739   1.262       .  A
C1741      C1742   1.405       .  A
C1741      C1746   1.398       .  A
C1741      H1748   1.084       .  S
C1742      C1743   1.414       .  A
C1743      C1744   1.401       .  A
C1743      N1750   1.429       .  S
C1744      C1745   1.406       .  A
C1744      H1749   1.084       .  S
C1745      C1746   1.413       .  A
C1746      N1747   1.428       .  S
N1747      O1751   1.261       .  A
N1747      O1752   1.262       .  A
N1750      O1754   1.262       .  A
N1750      O1753   1.262       .  A
C1755      C1756   1.405       .  A
C1755      C1760   1.403       .  A
C1755      H1762   1.084       .  S
C1756      C1757   1.414       .  A
C1757      C1758   1.400       .  A
C1757      N1764   1.429       .  S
C1758      C1759   1.405       .  A
C1758      H1763   1.084       .  S
C1759      C1760   1.416       .  A
C1760      N1761   1.431       .  S
N1761      O1765   1.262       .  A
N1761      O1766   1.261       .  A
N1764      O1768   1.262       .  A
N1764      O1767   1.262       .  A
C1769      C1770   1.406       .  A
C1769      C1774   1.402       .  A
C1769      H1776   1.084       .  S
C1770      C1771   1.415       .  A
C1771      C1772   1.398       .  A
C1771      N1778   1.430       .  S
C1772      C1773   1.406       .  A
C1772      H1777   1.084       .  S
C1773      C1774   1.414       .  A
C1774      N1775   1.429       .  S
N1775      O1779   1.262       .  A
N1775      O1780   1.262       .  A
N1778      O1782   1.262       .  A
N1778      O1781   1.262       .  A
C1783      C1784   1.408       .  A
C1783      C1788   1.400       .  A
C1783      H1790   1.084       .  S
C1784      C1785   1.418       .  A
C1785      C1786   1.407       .  A
C1785      N1792   1.429       .  S
C1786      C1787   1.403       .  A
C1787      C1788   1.410       .  A
C1788      N1789   1.430       .  S
N1789      O1793   1.262       .  A
N1789      O1794   1.262       .  A
N1792      O1796   1.262       .  A
N1792      O1795   1.262       .  A
C1797      C1798   1.406       .  A
C1797      C1802   1.407       .  A
C1797      H1804   1.084       .  S
C1798      C1799   1.415       .  A
C1799      C1800   1.404       .  A
C1799      N1806   1.429       .  S
C1800      C1801   1.404       .  A
C1800      H1805   1.085       .  S
C1801      C1802   1.413       .  A
C1802      N1803   1.427       .  S
N1803      O1807   1.262       .  A
N1803      O1808   1.262       .  A
N1806      O1810   1.262       .  A
N1806      O1809   1.262       .  A
C1811      C1812   1.409       .  A
C1811      C1816   1.397       .  A
C1811      H1818   1.085       .  S
C1812      C1813   1.409       .  A
C1813      C1814   1.396       .  A
C1813      N1820   1.429       .  S
C1814      C1815   1.406       .  A
C1814      H1819   1.082       .  S
C1815      C1816   1.409       .  A
C1816      N1817   1.429       .  S
N1817      O1821   1.261       .  A
N1817      O1822   1.262       .  A
N1820      O1824   1.261       .  A
N1820      O1823   1.262       .  A
C1825      C1826   1.401       .  A
C1825      C1830   1.397       .  A
C1825      H1832   1.085       .  S
C1826      C1827   1.409       .  A
C1827      C1828   1.399       .  A
C1827      N1834   1.423       .  S
C1828      C1829   1.400       .  A
C1828      H1833   1.085       .  S
C1829      C1830   1.414       .  A
C1830      N1831   1.430       .  S
N1831      O1835   1.262       .  A
N1831      O1836   1.262   1_565  A
N1834      O1838   1.262       .  A
N1834      O1837   1.260       .  A
C1839      C1840   1.409       .  A
C1839      C1844   1.399       .  A
C1839      H1846   1.083       .  S
C1840      C1841   1.402       .  A
C1841      C1842   1.394       .  A
C1841      N1848   1.426       .  S
C1842      C1843   1.406       .  A
C1842      H1847   1.084       .  S
C1843      C1844   1.404       .  A
C1844      N1845   1.430       .  S
N1845      O1849   1.262       .  A
N1845      O1850   1.262       .  A
N1848      O1852   1.261       .  A
N1848      O1851   1.262       .  A
C1853      C1854   1.407       .  A
C1853      C1858   1.404       .  A
C1853      H1860   1.084       .  S
C1855      C1856   1.404       .  A
C1855      N1862   1.429       .  S
C1856      C1857   1.410       .  A
C1856      H1861   1.084       .  S
C1858      N1859   1.429       .  S
N1859      O1863   1.262       .  A
N1859      O1864   1.262       .  A
N1862      O1865   1.262       .  A
C1867      C1868   1.398       .  A
C1867      C1872   1.398       .  A
C1867      H1874   1.085       .  S
C1868      C1869   1.407       .  A
C1869      C1870   1.406       .  A
C1869      N1876   1.428       .  S
C1870      C1871   1.410       .  A
C1870      H1875   1.084       .  S
C1871      C1872   1.413       .  A
C1872      N1873   1.424       .  S
N1873      O1877   1.262       .  A
N1873      O1878   1.262       .  A
N1876      O1880   1.261       .  A
N1876      O1879   1.262       .  A
C1881      C1882   1.407       .  A
C1881      C1886   1.398       .  A
C1881      H1888   1.084       .  S
C1882      C1883   1.417       .  A
C1883      C1884   1.405       .  A
C1883      N1890   1.429       .  S
C1884      C1885   1.405       .  A
C1885      C1886   1.413       .  A
C1886      N1887   1.430       .  S
N1887      O1891   1.262       .  A
N1887      O1892   1.261       .  A
N1890      O1894   1.262       .  A
N1890      O1893   1.262       .  A
C1895      C1896   1.404       .  A
C1895      C1900   1.400       .  A
C1895      H1902   1.084       .  S
C1896      C1897   1.414       .  A
C1897      C1898   1.399       .  A
C1897      N1904   1.429       .  S
C1898      C1899   1.405       .  A
C1898      H1903   1.084       .  S
C1899      C1900   1.413       .  A
C1900      N1901   1.425       .  S
N1901      O1905   1.260       .  A
N1901      O1906   1.262       .  A
N1904      O1908   1.262       .  A
N1904      O1907   1.261       .  A
C1909      C1910   1.406       .  A
C1909      C1914   1.401   1_655  A
C1909      H1916   1.084       .  S
C1910      C1911   1.411       .  A
C1911      C1912   1.398   1_655  A
C1911      N1918   1.428       .  S
C1912      C1913   1.404       .  A
C1912      H1917   1.085       .  S
C1913      C1914   1.413       .  A
C1914      N1915   1.429       .  S
N1915      O1919   1.262       .  A
N1915      O1920   1.262       .  A
N1918      O1922   1.261       .  A
N1918      O1921   1.262       .  A
C1923      C1924   1.399       .  A
C1923      C1928   1.396       .  A
C1923      H1930   1.085       .  S
C1924      C1925   1.421       .  A
C1925      C1926   1.394       .  A
C1925      N1932   1.428       .  S
C1926      C1927   1.393       .  A
C1926      H1931   1.085       .  S
C1927      C1928   1.417       .  A
C1928      N1929   1.429       .  S
N1929      O1933   1.262       .  A
N1929      O1934   1.262       .  A
N1932      O1936   1.259       .  A
N1932      O1935   1.260       .  A
C1937      C1938   1.409       .  A
C1937      C1942   1.406       .  A
C1937      H1944   1.084       .  S
C1938      C1939   1.416       .  A
C1939      C1940   1.405       .  A
C1939      N1946   1.429       .  S
C1940      C1941   1.404       .  A
C1940      H1945   1.085       .  S
C1941      C1942   1.411       .  A
C1942      N1943   1.429       .  S
N1943      O1947   1.262       .  A
N1943      O1948   1.262       .  A
N1946      O1950   1.262       .  A
N1946      O1949   1.262       .  A
C1951      C1952   1.407       .  A
C1951      C1956   1.395       .  A
C1951      H1958   1.084       .  S
C1952      C1953   1.417       .  A
C1953      C1954   1.409       .  A
C1953      N1960   1.428       .  S
C1954      C1955   1.406       .  A
C1955      C1956   1.412       .  A
C1956      N1957   1.429       .  S
N1957      O1961   1.262       .  A
N1957      O1962   1.262       .  A
N1960      O1964   1.262       .  A
N1960      O1963   1.262       .  A
C1965      C1966   1.406       .  A
C1965      C1970   1.401       .  A
C1965      H1972   1.084       .  S
C1966      C1967   1.411       .  A
C1967      C1968   1.394       .  A
C1967      N1974   1.428       .  S
C1968      C1969   1.403       .  A
C1968      H1973   1.085       .  S
C1969      C1970   1.413       .  A
C1970      N1971   1.429       .  S
N1971      O1975   1.262       .  A
N1971      O1976   1.262       .  A
N1974      O1978   1.260       .  A
N1974      O1977   1.261   1_565  A
C1979      C1980   1.406       .  A
C1979      C1984   1.405   1_655  A
C1979      H1986   1.084       .  S
C1980      C1981   1.416       .  A
C1981      C1982   1.399   1_655  A
C1981      N1988   1.430       .  S
C1982      C1983   1.404       .  A
C1982      H1987   1.084       .  S
C1983      C1984   1.417       .  A
C1984      N1985   1.429       .  S
N1985      O1989   1.262       .  A
N1985      O1990   1.262       .  A
N1988      O1992   1.262       .  A
N1988      O1991   1.262       .  A
C1993      C1994   1.406       .  A
C1993      H2000   1.084       .  S
C1994      C1995   1.411       .  A
C1995      N2002   1.429       .  S
C1996      C1997   1.408       .  A
C1996      H2001   1.083       .  S
C1997      C1998   1.415   1_565  A
C1998      N1999   1.428       .  S
N1999      O2003   1.262       .  A
N1999      O2004   1.262       .  A
N2002      O2006   1.262       .  A
C2007      C2008   1.401       .  A
C2007      C2012   1.397       .  A
C2007      H2014   1.085       .  S
C2008      C2009   1.412       .  A
C2009      C2010   1.394       .  A
C2009      N2016   1.428       .  S
C2010      C2011   1.401       .  A
C2010      H2015   1.085       .  S
C2011      C2012   1.414       .  A
C2012      N2013   1.432       .  S
N2013      O2017   1.262       .  A
N2013      O2018   1.262       .  A
N2016      O2020   1.261       .  A
N2016      O2019   1.262       .  A
C2021      C2022   1.405       .  A
C2021      C2026   1.412       .  A
C2022      C2023   1.412       .  A
C2023      C2024   1.399       .  A
C2023      N2030   1.430       .  S
C2024      C2025   1.408       .  A
C2024      H2029   1.084       .  S
C2025      C2026   1.420       .  A
C2026      N2027   1.432       .  S
N2027      O2031   1.262       .  A
N2027      O2032   1.261       .  A
N2030      O2034   1.262       .  A
N2030      O2033   1.262       .  A
C2035      C2036   1.406       .  A
C2035      C2040   1.401       .  A
C2035      H2042   1.084       .  S
C2036      C2037   1.420       .  A
C2037      C2038   1.413       .  A
C2037      N2044   1.428       .  S
C2038      C2039   1.405       .  A
C2038      H2043   1.084       .  S
C2039      C2040   1.411       .  A
C2040      N2041   1.428       .  S
N2041      O2045   1.261       .  A
N2041      O2046   1.262       .  A
N2044      O2048   1.262       .  A
N2044      O2047   1.262       .  A
