geometry optimzed in LAMMPS
_audit_creation_date              2020-12-01 
_audit_creation_method            'lammps2cif' 
_symmetry_space_group_name_H-M    'P1' 
_symmetry_Int_Tables_number       1 
_symmetry_cell_setting            triclinic 
loop_ 
_symmetry_equiv_pos_as_xyz 
  x,y,z 
_cell_length_a                    58.38065971 
_cell_length_b                    31.242443179619087 
_cell_length_c                    58.27779833679611 
_cell_angle_alpha                 90.07686645278439 
_cell_angle_beta                  89.86918223055393 
_cell_angle_gamma                 90.53502335913014 
loop_ 
_atom_site_label 
_atom_site_type_symbol 
_atom_site_fract_x 
_atom_site_fract_y 
_atom_site_fract_z 
_atom_site_charge 
Zr1        Zr  0.60774629  0.23292515  0.85407133     2.17500
O2          O  0.57850926  0.19648291  0.83115515    -0.51700
O3          O  0.61741021  0.15859292  0.86367717    -0.74900
O4          O  0.61922595  0.22460380  0.81353668    -0.81700
O5          O  0.56259322  0.25935367  0.90053963    -0.83500
O6          O  0.65164439  0.26367632  0.80702825    -0.79100
O7          O  0.56763644  0.22744347  0.86591830    -0.90700
O8          O  0.64634729  0.15768736  0.88942698    -0.76700
O9          O  0.64825411  0.23270527  0.85873672    -0.86200
O10         O  0.61418389  0.23016743  0.89445661    -0.85900
O11         O  0.62069276  0.29944248  0.83727064    -0.72600
O12         O  0.59079832  0.29584223  0.87045774    -0.84700
Zr13       Zr  0.65255727  0.36006069  0.89857343     2.26400
Zr14       Zr  0.66134424  0.29951564  0.84268139     2.06300
Zr15       Zr  0.59841347  0.29398966  0.91068201     2.10000
Zr16       Zr  0.65446974  0.23094318  0.89922058     1.78800
O17         O  0.56859455  0.34397874  0.92181861    -0.93600
O18         O  0.69194061  0.20592290  0.88681837    -0.41400
O19         O  0.63890895  0.29452392  0.91562608    -0.78000
O20         O  0.66877121  0.29530566  0.88316109    -0.96700
O21         O  0.64509392  0.36331968  0.85838486    -0.90000
O22         O  0.61192836  0.35993923  0.89457226    -0.92800
C23         C  0.63184718  0.13881856  0.87647480     1.00900
C24         C  0.55511038  0.23848887  0.88310991     1.13900
C25         C  0.63530612  0.23895039  0.80035940     1.04600
O26         O  0.69396188  0.26185960  0.82650335    -0.95000
O27         O  0.69803668  0.32976466  0.85322025    -0.90700
O28         O  0.69295826  0.36622570  0.88665870    -0.83900
C29         C  0.70552853  0.35155518  0.87031894     1.11300
O30         O  0.57652000  0.35029961  0.82370779    -0.97000
Zr31       Zr  0.60434986  0.36153906  0.85441490     1.88900
O32         O  0.64111027  0.43373404  0.88963247    -0.73600
O33         O  0.66661982  0.35676248  0.81483860    -0.52900
O34         O  0.61453684  0.40137509  0.81984672    -0.97500
O35         O  0.56662733  0.38389385  0.86763247    -0.54800
O36         O  0.61095493  0.43486257  0.86522393    -0.74100
C37         C  0.62579737  0.45347179  0.87792218     0.98200
O38         O  0.67563490  0.40568802  0.92374769    -0.62900
O39         O  0.58952909  0.24507766  0.94209154    -0.57700
O40         O  0.64472929  0.36116757  0.93995095    -0.94400
O41         O  0.61128744  0.32536582  0.94649272    -0.92900
O42         O  0.64350024  0.19990681  0.93604087    -0.93200
O43         O  0.68384912  0.23599692  0.92871287    -0.92000
C44         C  0.62865160  0.34745307  0.95325084     1.17100
H45         H  0.60724966  0.20489745  0.90112542     0.33000
H46         H  0.68468370  0.29179015  0.88689626     0.43900
H47         H  0.60526206  0.38392240  0.90255323     0.37400
H48         H  0.61661215  0.30165381  0.82129482     0.33900
H49         H  0.69461898  0.17940573  0.89563218     0.25700
H50         H  0.68051298  0.34861269  0.80615121     0.31600
H51         H  0.60396709  0.42597232  0.81948389     0.37500
H52         H  0.64126286  0.16893786  0.93311588     0.32000
H53         H  0.57485981  0.25552923  0.94843746     0.30800
H54         H  0.56727154  0.34118596  0.93869077     0.32500
H55         H  0.56185858  0.40667750  0.85693720     0.31500
H56         H  0.68819401  0.26670513  0.92907225     0.35500
H57         H  0.68995774  0.39004637  0.92691004     0.28200
H58         H  0.58549250  0.16926096  0.82616046     0.32500
H59         H  0.57014368  0.37874172  0.82008557     0.35300
H60         H  0.58551200  0.21741929  0.93477070     0.27900
H61         H  0.68036019  0.43052211  0.91427044     0.40800
H62         H  0.69376270  0.23356596  0.83410727     0.30800
H63         H  0.68962247  0.19606320  0.87084609     0.38500
H64         H  0.56940768  0.39903452  0.88230224     0.30300
H65         H  0.65391974  0.35280040  0.80378652     0.30400
H66         H  0.57671364  0.21351496  0.81696413     0.30600
Zr67       Zr  0.60607953  0.73272373  0.85407441     2.17500
O68         O  0.57787175  0.69634191  0.82985760    -0.51700
O69         O  0.61549462  0.65850495  0.86314436    -0.74900
O70         O  0.61870864  0.72383858  0.81384561    -0.81700
O71         O  0.56063205  0.75818632  0.90028866    -0.83500
O72         O  0.65202450  0.76025810  0.80843036    -0.79100
O73         O  0.56618619  0.72426153  0.86611904    -0.90700
O74         O  0.64392628  0.65687753  0.88952776    -0.76700
O75         O  0.64636552  0.73102298  0.85989120    -0.86200
O76         O  0.61158348  0.73065336  0.89467609    -0.85900
O77         O  0.61996711  0.79849874  0.83738066    -0.72600
O78         O  0.58921146  0.79646032  0.86972602    -0.84700
Zr79       Zr  0.65135940  0.85834302  0.89933204     2.26400
Zr80       Zr  0.66056703  0.79691018  0.84389752     2.06300
Zr81       Zr  0.59591980  0.79509716  0.91025484     2.10000
Zr82       Zr  0.65176963  0.72963868  0.90042775     1.78800
O83         O  0.56454646  0.84330044  0.91902204    -0.93600
O84         O  0.68956789  0.70385013  0.88961408    -0.41400
O85         O  0.63634403  0.79376644  0.91651174    -0.78000
O86         O  0.66739433  0.79313559  0.88434157    -0.96700
O87         O  0.64477904  0.86149153  0.85907306    -0.90000
O88         O  0.61080913  0.86025460  0.89435034    -0.92800
C89         C  0.62974079  0.63859741  0.87598757     1.00900
C90         C  0.55371526  0.73530744  0.88330777     1.13900
C91         C  0.63561834  0.73650395  0.80117292     1.04600
O92         O  0.69207752  0.75120437  0.83221996    -0.95000
O93         O  0.69654841  0.83099417  0.85403392    -0.90700
O94         O  0.69214482  0.86400889  0.88857514    -0.83900
C95         C  0.70443909  0.85120888  0.87153982     1.11300
O96         O  0.57610697  0.86152152  0.82315727    -0.97000
Zr97       Zr  0.60424484  0.86156210  0.85404723     1.88900
O98         O  0.64078517  0.93250083  0.89068151    -0.73600
O99         O  0.66823248  0.84888433  0.81368351    -0.52900
O100        O  0.61919046  0.89473613  0.81917329    -0.97500
O101        O  0.56571052  0.88439153  0.86430764    -0.54800
O102        O  0.61139464  0.93441985  0.86548249    -0.74100
C103        C  0.62599704  0.95275786  0.87854926     0.98200
O104        O  0.67785753  0.90206512  0.92190540    -0.62900
O105        O  0.58791842  0.74672450  0.94212244    -0.57700
O106        O  0.64178187  0.85947486  0.94025296    -0.94400
O107        O  0.60622835  0.83110543  0.94580433    -0.92900
O108        O  0.63975143  0.69148072  0.93488468    -0.93200
O109        O  0.67912079  0.73694966  0.93169084    -0.92000
C110        C  0.62455067  0.84966486  0.95302476     1.17100
H111        H  0.60419681  0.70581099  0.90135717     0.33000
H112        H  0.68335607  0.78970019  0.88795533     0.43900
H113        H  0.60416010  0.88452686  0.90209372     0.37400
H114        H  0.61634629  0.80058790  0.82128175     0.33900
H115        H  0.69328442  0.68155017  0.90102049     0.25700
H116        H  0.68141164  0.83703054  0.80513704     0.31600
H117        H  0.61806424  0.92598063  0.82170338     0.37500
H118        H  0.64997290  0.66641454  0.93574927     0.32000
H119        H  0.60251077  0.74515858  0.95070105     0.30800
H120        H  0.55451642  0.82701515  0.92966317     0.32500
H121        H  0.56409883  0.91341726  0.85780655     0.31500
H122        H  0.68237792  0.76806764  0.93256996     0.35500
H123        H  0.66834848  0.92160891  0.93123003     0.28200
H124        H  0.58550553  0.67024400  0.82410829     0.32500
H125        H  0.57463595  0.89178578  0.81837356     0.35300
H126        H  0.57750989  0.76280356  0.95235647     0.27900
H127        H  0.68501190  0.88245715  0.93304810     0.40800
H128        H  0.69965214  0.74300818  0.84671158     0.30800
H129        H  0.68711679  0.68796817  0.87512026     0.38500
H130        H  0.56620761  0.88914254  0.88107760     0.30300
H131        H  0.65515589  0.84593538  0.80299370     0.30400
H132        H  0.57579805  0.71467057  0.81618363     0.30600
Zr133      Zr  0.60302129  0.20407646  0.65090373     2.17500
O134        O  0.57314074  0.22732261  0.67739461    -0.51700
O135        O  0.61077639  0.28000996  0.64304310    -0.74900
O136        O  0.61680402  0.21754463  0.69021352    -0.81700
O137        O  0.55617211  0.16452066  0.60976293    -0.83500
O138        O  0.65122727  0.18533575  0.69475536    -0.79100
O139        O  0.56281611  0.20900243  0.64009219    -0.90700
O140        O  0.63623699  0.28579589  0.61376200    -0.76700
O141        O  0.64256136  0.21333884  0.64227488    -0.86200
O142        O  0.60564413  0.20583686  0.60996962    -0.85900
O143        O  0.62065628  0.14188510  0.66720817    -0.72600
O144        O  0.58854513  0.13650660  0.63688888    -0.84700
Zr145      Zr  0.65091814  0.08638026  0.60387140     2.26400
Zr146      Zr  0.66042136  0.15148463  0.65839485     2.06300
Zr147      Zr  0.59239012  0.13765224  0.59603548     2.10000
Zr148      Zr  0.64515063  0.21442500  0.60133460     1.78800
O149        O  0.56402668  0.08199935  0.58804430    -0.93600
O150        O  0.68203111  0.25030802  0.60660449    -0.41400
O151        O  0.63200942  0.14679634  0.58710751    -0.78000
O152        O  0.66450899  0.15505251  0.61733511    -0.96700
O153        O  0.64720946  0.08322149  0.64460216    -0.90000
O154        O  0.61113081  0.07662995  0.61160109    -0.92800
C155        C  0.62331013  0.30205973  0.62914913     1.00900
C156        C  0.54961326  0.19055630  0.62540424     1.13900
C157        C  0.63425466  0.20698391  0.70236058     1.04600
O158        O  0.69049456  0.20176613  0.66962299    -0.95000
O159        O  0.69730777  0.12635765  0.64634755    -0.90700
O160        O  0.69181776  0.08747641  0.61369385    -0.83900
C161        C  0.70452209  0.10431344  0.62935366     1.11300
O162        O  0.57941219  0.07604111  0.68344173    -0.97000
Zr163      Zr  0.60727698  0.07526130  0.65222563     1.88900
O164        O  0.64491033  0.01056597  0.61301079    -0.73600
O165        O  0.67208847  0.09900525  0.68687556    -0.52900
O166        O  0.62322751  0.04738883  0.68779341    -0.97500
O167        O  0.57127390  0.03905925  0.64308863    -0.54800
O168        O  0.61876081  0.00412314  0.64165000    -0.74100
C169        C  0.63245566  0.98825894  0.62681416     0.98200
O170        O  0.67556233  0.05222887  0.57542252    -0.62900
O171        O  0.57835285  0.18303821  0.56521315    -0.57700
O172        O  0.63864388  0.07738062  0.56408290    -0.94400
O173        O  0.60293255  0.10422548  0.55980538    -0.92900
O174        O  0.62776424  0.24497895  0.56711355    -0.93200
O175        O  0.67063981  0.20968956  0.56821231    -0.92000
C176        C  0.62074016  0.08521437  0.55200690     1.17100
H177        H  0.59665933  0.22899446  0.60389516     0.33000
H178        H  0.68000710  0.16095400  0.61259899     0.43900
H179        H  0.60529196  0.05079414  0.60451806     0.37400
H180        H  0.61784613  0.13962795  0.68347453     0.33900
H181        H  0.68000877  0.27947822  0.60034996     0.25700
H182        H  0.68757792  0.10847442  0.69170983     0.31600
H183        H  0.62387532  0.01598004  0.68569385     0.37500
H184        H  0.61630586  0.26562317  0.57279576     0.32000
H185        H  0.56577215  0.16623951  0.55810300     0.30800
H186        H  0.55198887  0.09649379  0.57908025     0.32500
H187        H  0.57457895  0.02133639  0.62940617     0.31500
H188        H  0.67279283  0.23939466  0.56264366     0.35500
H189        H  0.68708827  0.07409850  0.57086689     0.28200
H190        H  0.57831564  0.25539601  0.68345980     0.32500
H191        H  0.57776599  0.04587010  0.68841876     0.35300
H192        H  0.57057032  0.20715412  0.57291134     0.27900
H193        H  0.68425203  0.03006093  0.58374759     0.40800
H194        H  0.68399358  0.23039623  0.66670539     0.30800
H195        H  0.68331016  0.25458051  0.62338651     0.38500
H196        H  0.56126744  0.06202500  0.63729458     0.30300
H197        H  0.66226236  0.10436260  0.70042518     0.30400
H198        H  0.57369930  0.20749874  0.69062837     0.30600
Zr199      Zr  0.60415795  0.70786937  0.64864535     2.17500
O200        O  0.57386703  0.74796580  0.66752564    -0.51700
O201        O  0.61518053  0.78264388  0.64089715    -0.74900
O202        O  0.61463813  0.71793526  0.68941935    -0.81700
O203        O  0.55792344  0.66851291  0.60517552    -0.83500
O204        O  0.64901837  0.68639559  0.69475491    -0.79100
O205        O  0.56371318  0.70824653  0.63741838    -0.90700
O206        O  0.64133306  0.78504930  0.61212822    -0.76700
O207        O  0.64444179  0.71178761  0.64286961    -0.86200
O208        O  0.60993971  0.70929634  0.60799849    -0.85900
O209        O  0.61854331  0.64371476  0.66644228    -0.72600
O210        O  0.58840905  0.64203722  0.63379187    -0.84700
Zr211      Zr  0.65108197  0.58331978  0.60504539     2.26400
Zr212      Zr  0.65908714  0.64801719  0.66001587     2.06300
Zr213      Zr  0.59513177  0.64269896  0.59334943     2.10000
Zr214      Zr  0.65023808  0.71230767  0.60234745     1.78800
O215        O  0.56641269  0.59095251  0.58067939    -0.93600
O216        O  0.68591808  0.74861738  0.61279114    -0.41400
O217        O  0.63559244  0.64626929  0.58715411    -0.78000
O218        O  0.66614722  0.65057158  0.61950476    -0.96700
O219        O  0.64424497  0.58167652  0.64545726    -0.90000
O220        O  0.61047298  0.57912741  0.61014714    -0.92800
C221        C  0.62860147  0.80300939  0.62709674     1.00900
C222        C  0.55079079  0.69194629  0.62175039     1.13900
C223        C  0.63174634  0.70755716  0.70218442     1.04600
O224        O  0.69018865  0.69641707  0.67069674    -0.95000
O225        O  0.69547344  0.61616656  0.65013696    -0.90700
O226        O  0.69230322  0.58332044  0.61552788    -0.83900
C227        C  0.70428625  0.59734514  0.63263667     1.11300
O228        O  0.57465224  0.58478069  0.68046388    -0.97000
Zr229      Zr  0.60370532  0.57880367  0.65050676     1.88900
O230        O  0.64102640  0.50850384  0.61501030    -0.73600
O231        O  0.66741772  0.59900110  0.69134943    -0.52900
O232        O  0.61540023  0.54635941  0.68660870    -0.97500
O233        O  0.56744420  0.54686517  0.63821867    -0.54800
O234        O  0.61326739  0.50594441  0.64220923    -0.74100
C235        C  0.62736337  0.48794296  0.62857254     0.98200
O236        O  0.67640702  0.53626901  0.58363932    -0.62900
O237        O  0.58410944  0.69352446  0.56375155    -0.57700
O238        O  0.64203845  0.58168558  0.56348951    -0.94400
O239        O  0.60705890  0.61080681  0.55738580    -0.92900
O240        O  0.63855257  0.74143481  0.56547714    -0.93200
O241        O  0.68087724  0.70418876  0.57416415    -0.92000
C242        C  0.62522371  0.59210054  0.55032597     1.17100
H243        H  0.60239510  0.73349401  0.60113464     0.33000
H244        H  0.68204283  0.65565440  0.61595990     0.43900
H245        H  0.60408521  0.55399683  0.60279922     0.37400
H246        H  0.61474296  0.64165450  0.68251588     0.33900
H247        H  0.68665730  0.77440276  0.60294177     0.25700
H248        H  0.68092275  0.61181449  0.69909238     0.31600
H249        H  0.62997503  0.53172254  0.68312617     0.37500
H250        H  0.64097032  0.77273805  0.56683681     0.32000
H251        H  0.59876151  0.70499146  0.55768414     0.30800
H252        H  0.55876097  0.60489796  0.56755523     0.32500
H253        H  0.57142981  0.51933567  0.63087228     0.31500
H254        H  0.68290448  0.73258484  0.56687034     0.35500
H255        H  0.66622727  0.51518763  0.57596219     0.28200
H256        H  0.58156591  0.77306319  0.67456654     0.32500
H257        H  0.56927378  0.55513478  0.68341893     0.35300
H258        H  0.57791469  0.67573089  0.55109516     0.27900
H259        H  0.68269387  0.55395261  0.57101287     0.40800
H260        H  0.69707090  0.70546644  0.65592245     0.30800
H261        H  0.68317179  0.76002072  0.62840419     0.38500
H262        H  0.56240853  0.56508684  0.62534779     0.30300
H263        H  0.65469213  0.60267364  0.70241957     0.30400
H264        H  0.56876179  0.72991872  0.68054817     0.30600
Zr265      Zr  0.40692482  0.19615791  0.85273962     2.17500
O266        O  0.43579966  0.23586128  0.83097304    -0.51700
O267        O  0.39758151  0.27187781  0.86042998    -0.74900
O268        O  0.39593258  0.20050837  0.81151726    -0.81700
O269        O  0.45267192  0.16667680  0.89808754    -0.83500
O270        O  0.36088177  0.16923094  0.80793067    -0.79100
O271        O  0.44743869  0.19779746  0.86317078    -0.90700
O272        O  0.37233946  0.27632333  0.88989602    -0.76700
O273        O  0.36697334  0.20153302  0.85989573    -0.86200
O274        O  0.40246541  0.20018565  0.89355577    -0.85900
O275        O  0.39113405  0.13067294  0.83715664    -0.72600
O276        O  0.42241084  0.13147040  0.86897347    -0.84700
Zr277      Zr  0.35909249  0.07612883  0.90002550     2.26400
Zr278      Zr  0.35086257  0.13688102  0.84438743     2.06300
Zr279      Zr  0.41651503  0.13462245  0.90953196     2.10000
Zr280      Zr  0.36254022  0.20454657  0.90064923     1.78800
O281        O  0.44623137  0.08289798  0.91818843    -0.93600
O282        O  0.32694388  0.24155337  0.89229338    -0.41400
O283        O  0.37627233  0.13932990  0.91647360    -0.78000
O284        O  0.34471526  0.14246230  0.88501480    -0.96700
O285        O  0.36520071  0.07132499  0.85972141    -0.90000
O286        O  0.39960095  0.07041173  0.89448380    -0.92800
C287        C  0.38504646  0.29333103  0.87450106     1.00900
C288        C  0.45987268  0.18689466  0.88032082     1.13900
C289        C  0.37838762  0.18878332  0.79943772     1.04600
O290        O  0.32137314  0.18830393  0.83467005    -0.95000
O291        O  0.31386044  0.10706503  0.85449354    -0.90700
O292        O  0.31824867  0.07408620  0.88900803    -0.83900
C293        C  0.30597506  0.08757945  0.87218995     1.11300
O294        O  0.43692938  0.07328605  0.82650247    -0.97000
Zr295      Zr  0.40563170  0.06716343  0.85413043     1.88900
O296        O  0.36560853  0.00076130  0.89047580    -0.73600
O297        O  0.34043533  0.08421696  0.81528055    -0.52900
O298        O  0.39420630  0.03552548  0.81763024    -0.97500
O299        O  0.44024519  0.02934017  0.86530164    -0.54800
O300        O  0.39300598  0.99569381  0.86296377    -0.74100
C301        C  0.37857096  0.97917528  0.87695778     0.98200
O302        O  0.33407101  0.04165778  0.92827505    -0.62900
O303        O  0.42779148  0.18199479  0.94091079    -0.57700
O304        O  0.37020421  0.07103042  0.94041476    -0.94400
O305        O  0.40493923  0.10291719  0.94585558    -0.92900
O306        O  0.37828137  0.23258188  0.93638876    -0.93200
O307        O  0.33346252  0.20283813  0.93070808    -0.92000
C308        C  0.38729058  0.08212240  0.95310382     1.17100
H309        H  0.41060305  0.22466718  0.89972479     0.33000
H310        H  0.32888816  0.14747067  0.88877040     0.43900
H311        H  0.40556228  0.04551577  0.90216769     0.37400
H312        H  0.39456549  0.12649247  0.82113693     0.33900
H313        H  0.32827928  0.26954375  0.90020095     0.25700
H314        H  0.32721278  0.09684741  0.80721895     0.31600
H315        H  0.37842480  0.02469276  0.82022485     0.37500
H316        H  0.37696480  0.20863694  0.94744948     0.32000
H317        H  0.44099741  0.16768684  0.94814703     0.30800
H318        H  0.45740817  0.09874381  0.92781078     0.32500
H319        H  0.43517279  0.00706136  0.87630439     0.31500
H320        H  0.32815832  0.17265669  0.93120367     0.35500
H321        H  0.32217420  0.06290653  0.93214670     0.28200
H322        H  0.42729274  0.25644962  0.82141762     0.32500
H323        H  0.43868821  0.04437141  0.81978259     0.35300
H324        H  0.43447863  0.20775461  0.93351972     0.27900
H325        H  0.32587812  0.01844553  0.92000065     0.40800
H326        H  0.31254129  0.19225288  0.84903300     0.30800
H327        H  0.32795292  0.24867042  0.87577270     0.38500
H328        H  0.44891931  0.05018590  0.87476072     0.30300
H329        H  0.35306483  0.08530004  0.80392234     0.30400
H330        H  0.44225992  0.21493195  0.82001754     0.30600
Zr331      Zr  0.40535083  0.69862489  0.85539173     2.17500
O332        O  0.43680712  0.73330675  0.83496562    -0.51700
O333        O  0.39460431  0.77346779  0.86204926    -0.74900
O334        O  0.39508944  0.70563502  0.81420120    -0.81700
O335        O  0.45093680  0.66477092  0.90000520    -0.83500
O336        O  0.35920261  0.67871094  0.81075674    -0.79100
O337        O  0.44481617  0.70571048  0.86836358    -0.90700
O338        O  0.36994043  0.77641891  0.89207429    -0.76700
O339        O  0.36559444  0.70545867  0.86317030    -0.86200
O340        O  0.40130973  0.69877902  0.89628993    -0.85900
O341        O  0.38917062  0.63514630  0.83824840    -0.72600
O342        O  0.42056292  0.63214802  0.86951993    -0.84700
Zr343      Zr  0.35703912  0.57489349  0.89947260     2.26400
Zr344      Zr  0.34911605  0.64275199  0.84609545     2.06300
Zr345      Zr  0.41472550  0.63126232  0.91018275     2.10000
Zr346      Zr  0.36163456  0.70428373  0.90396156     1.78800
O347        O  0.44282029  0.57582397  0.91752351    -0.93600
O348        O  0.32479233  0.73943169  0.89919058    -0.41400
O349        O  0.37458274  0.63652236  0.91755339    -0.78000
O350        O  0.34320711  0.64384358  0.88693550    -0.96700
O351        O  0.36278273  0.57464140  0.85903453    -0.90000
O352        O  0.39736818  0.56899730  0.89348978    -0.92800
C353        C  0.38195871  0.79409201  0.87629967     1.00900
C354        C  0.45760364  0.69090415  0.88431992     1.13900
C355        C  0.37715900  0.69641216  0.80212788     1.04600
O356        O  0.31995527  0.69497334  0.83654012    -0.95000
O357        O  0.31186509  0.61523859  0.85543308    -0.90700
O358        O  0.31608998  0.57643833  0.88812813    -0.83900
C359        C  0.30385692  0.59330186  0.87214007     1.11300
O360        O  0.43222850  0.57102576  0.82299535    -0.97000
Zr361      Zr  0.40319231  0.56969912  0.85312826     1.88900
O362        O  0.36575909  0.49977900  0.88918760    -0.73600
O363        O  0.33679286  0.59488717  0.81543544    -0.52900
O364        O  0.38910284  0.54234113  0.81657937    -0.97500
O365        O  0.43955164  0.53722406  0.86361705    -0.54800
O366        O  0.39286030  0.49685846  0.86133048    -0.74100
C367        C  0.37907091  0.47903902  0.87550031     0.98200
O368        O  0.33172499  0.53121722  0.92338436    -0.62900
O369        O  0.42796133  0.67376942  0.94276898    -0.57700
O370        O  0.36717551  0.56854282  0.94033592    -0.94400
O371        O  0.40222347  0.59862025  0.94583334    -0.92900
O372        O  0.38027433  0.73435331  0.93776517    -0.93200
O373        O  0.33690669  0.70175967  0.93769587    -0.92000
C374        C  0.38430017  0.57884343  0.95320554     1.17100
H375        H  0.40982946  0.72229156  0.90301094     0.33000
H376        H  0.32750777  0.64901935  0.89114375     0.43900
H377        H  0.40327925  0.54343532  0.90054228     0.37400
H378        H  0.39236743  0.63204762  0.82211255     0.33900
H379        H  0.32521461  0.76404252  0.90991876     0.25700
H380        H  0.32616749  0.61218155  0.80610939     0.31600
H381        H  0.37487690  0.52638580  0.82042378     0.37500
H382        H  0.37429038  0.76381300  0.93903035     0.32000
H383        H  0.41401607  0.67984595  0.95185939     0.30800
H384        H  0.45106765  0.58565564  0.93141728     0.32500
H385        H  0.43615124  0.51943634  0.87727041     0.31500
H386        H  0.32682695  0.67653699  0.93517676     0.35500
H387        H  0.31839518  0.54912278  0.92742309     0.28200
H388        H  0.42992700  0.75709581  0.82629738     0.32500
H389        H  0.43421329  0.54078325  0.81832388     0.35300
H390        H  0.43679979  0.65372972  0.95238915     0.27900
H391        H  0.32560744  0.50840926  0.91325606     0.40800
H392        H  0.31638671  0.70930651  0.85124682     0.30800
H393        H  0.32561909  0.75277322  0.88381516     0.38500
H394        H  0.44906607  0.56118356  0.86954180     0.30300
H395        H  0.35049349  0.59155297  0.80558124     0.30400
H396        H  0.44186980  0.71234959  0.82332054     0.30600
Zr397      Zr  0.39963616  0.21093035  0.64638282     2.17500
O398        O  0.42780697  0.16969076  0.66766520    -0.51700
O399        O  0.38936615  0.13640659  0.63733075    -0.74900
O400        O  0.38828569  0.20076898  0.68699666    -0.81700
O401        O  0.44622848  0.25087701  0.60375197    -0.83500
O402        O  0.35425926  0.23309333  0.69269738    -0.79100
O403        O  0.44024706  0.21248505  0.63641213    -0.90700
O404        O  0.36289033  0.13372686  0.60895388    -0.76700
O405        O  0.35954305  0.20687814  0.64012525    -0.86200
O406        O  0.39474312  0.21043673  0.60558736    -0.85900
O407        O  0.38504172  0.27438659  0.66450502    -0.72600
O408        O  0.41532852  0.27710114  0.63175445    -0.84700
Zr409      Zr  0.35321482  0.33576866  0.60365645     2.26400
Zr410      Zr  0.34467162  0.27027664  0.65772345     2.06300
Zr411      Zr  0.40927051  0.27753579  0.59119952     2.10000
Zr412      Zr  0.35460085  0.20679384  0.59948360     1.78800
O413        O  0.43786136  0.33051500  0.57968280    -0.93600
O414        O  0.31833954  0.17146233  0.60884455    -0.41400
O415        O  0.36890553  0.27356732  0.58501017    -0.78000
O416        O  0.33823298  0.26803140  0.61705911    -0.96700
O417        O  0.35945357  0.33726626  0.64399985    -0.90000
O418        O  0.39366881  0.33998648  0.60888014    -0.92800
C419        C  0.37583664  0.11600162  0.62370378     1.00900
C420        C  0.45331874  0.22851664  0.62077181     1.13900
C421        C  0.37124830  0.21142327  0.69992932     1.04600
O422        O  0.31385913  0.22404870  0.67147666    -0.95000
O423        O  0.30767333  0.29853098  0.64809111    -0.90700
O424        O  0.31255833  0.33709997  0.61528166    -0.83900
C425        C  0.30010550  0.32098520  0.63145063     1.11300
O426        O  0.43070185  0.33110427  0.67712183    -0.97000
Zr427      Zr  0.39994755  0.33958938  0.64929411     1.88900
O428        O  0.36358228  0.41021337  0.61364303    -0.73600
O429        O  0.33819082  0.32501006  0.68681904    -0.52900
O430        O  0.38757049  0.36405857  0.68701586    -0.97500
O431        O  0.43570998  0.37615836  0.63933414    -0.54800
O432        O  0.38933025  0.41262415  0.64274160    -0.74100
C433        C  0.37641321  0.43053202  0.62802917     0.98200
O434        O  0.32996277  0.38097778  0.57890338    -0.62900
O435        O  0.42000330  0.22805263  0.56073905    -0.57700
O436        O  0.36168397  0.34065105  0.56273625    -0.94400
O437        O  0.39703068  0.31336220  0.55604045    -0.92900
O438        O  0.36950626  0.17712577  0.56380290    -0.93200
O439        O  0.32525708  0.21391001  0.57004408    -0.92000
C440        C  0.37867971  0.33230758  0.54949900     1.17100
H441        H  0.40253979  0.18651866  0.59865195     0.33000
H442        H  0.32238983  0.26353573  0.61320926     0.43900
H443        H  0.39992734  0.36540399  0.60174354     0.37400
H444        H  0.38877159  0.27633985  0.68057735     0.33900
H445        H  0.31887117  0.14326295  0.60109408     0.25700
H446        H  0.32195480  0.32124894  0.69139025     0.31600
H447        H  0.39314266  0.39400751  0.68815260     0.37500
H448        H  0.36199107  0.14872070  0.56229752     0.32000
H449        H  0.40719274  0.22906455  0.54965511     0.30800
H450        H  0.44429074  0.31934436  0.56514853     0.32500
H451        H  0.43480447  0.40457075  0.64681223     0.31500
H452        H  0.32330425  0.18502778  0.56327030     0.35500
H453        H  0.31602527  0.36411333  0.57515122     0.28200
H454        H  0.41940422  0.14430716  0.67356788     0.32500
H455        H  0.43316374  0.35973482  0.68404962     0.35300
H456        H  0.43292936  0.24238435  0.55273619     0.27900
H457        H  0.32449804  0.40452456  0.58883548     0.40800
H458        H  0.31812555  0.19501367  0.66626808     0.30800
H459        H  0.31942933  0.16469117  0.62539224     0.38500
H460        H  0.43463150  0.38231179  0.62272469     0.30300
H461        H  0.34700811  0.31563957  0.70037388     0.30400
H462        H  0.43150791  0.18692424  0.68146608     0.30600
Zr463      Zr  0.40109717  0.71418595  0.65003827     2.17500
O464        O  0.43054192  0.68148721  0.67382214    -0.51700
O465        O  0.39289957  0.63807342  0.64173729    -0.74900
O466        O  0.38954855  0.70559141  0.69030106    -0.81700
O467        O  0.44703729  0.75588617  0.60736713    -0.83500
O468        O  0.35398912  0.73315599  0.69535260    -0.79100
O469        O  0.44153533  0.71388827  0.63876570    -0.90700
O470        O  0.36748788  0.63164365  0.61248095    -0.76700
O471        O  0.36109943  0.70566268  0.64358250    -0.86200
O472        O  0.39634868  0.71075758  0.60945116    -0.85900
O473        O  0.38418945  0.77742824  0.66673191    -0.72600
O474        O  0.41543646  0.78130229  0.63527894    -0.84700
Zr475      Zr  0.35210596  0.83223997  0.60494879     2.26400
Zr476      Zr  0.34392156  0.76835827  0.65980505     2.06300
Zr477      Zr  0.40955963  0.77821475  0.59476498     2.10000
Zr478      Zr  0.35636854  0.70338594  0.60291328     1.78800
O479        O  0.43845550  0.82877947  0.58122621    -0.93600
O480        O  0.32123689  0.66515064  0.61339269    -0.41400
O481        O  0.36941325  0.77044545  0.58753207    -0.78000
O482        O  0.33820751  0.76424767  0.61913955    -0.96700
O483        O  0.35745296  0.83593837  0.64543007    -0.90000
O484        O  0.39232532  0.84076414  0.61075230    -0.92800
C485        C  0.38058246  0.61575098  0.62773345     1.00900
C486        C  0.45435441  0.73173174  0.62345800     1.13900
C487        C  0.37196339  0.71444343  0.70272924     1.04600
O488        O  0.31382041  0.71793858  0.67073655    -0.95000
O489        O  0.30667147  0.79613856  0.64940892    -0.90700
O490        O  0.31158605  0.83345584  0.61621107    -0.83900
C491        C  0.29909284  0.81801942  0.63247360     1.11300
O492        O  0.42625160  0.84052208  0.68165685    -0.97000
Zr493      Zr  0.39774847  0.84358458  0.65113437     1.88900
O494        O  0.36062825  0.90835055  0.61163960    -0.73600
O495        O  0.33442363  0.81849985  0.69032128    -0.52900
O496        O  0.38424124  0.87668962  0.68650980    -0.97500
O497        O  0.43395433  0.87849535  0.64101977    -0.54800
O498        O  0.38614833  0.91505860  0.64072104    -0.74100
C499        C  0.37304082  0.93082107  0.62539643     0.98200
O500        O  0.32282321  0.87012859  0.58335749    -0.62900
O501        O  0.41995043  0.72679466  0.56508625    -0.57700
O502        O  0.36232378  0.83686296  0.56429241    -0.94400
O503        O  0.39866991  0.81323290  0.55952977    -0.92900
O504        O  0.37126629  0.67335011  0.56734815    -0.93200
O505        O  0.32728912  0.70658032  0.57299434    -0.92000
C506        C  0.38022161  0.83006108  0.55198448     1.17100
H507        H  0.40478748  0.68715671  0.60299681     0.33000
H508        H  0.32240759  0.75905548  0.61523260     0.43900
H509        H  0.39832379  0.86600713  0.60321097     0.37400
H510        H  0.38749077  0.78056945  0.68284961     0.33900
H511        H  0.32178389  0.63781805  0.60479464     0.25700
H512        H  0.32360624  0.80252074  0.70031610     0.31600
H513        H  0.39108042  0.90581893  0.68653719     0.37500
H514        H  0.37474293  0.69852156  0.55759597     0.32000
H515        H  0.42802491  0.74397203  0.55326003     0.30800
H516        H  0.44750020  0.81257004  0.56980859     0.32500
H517        H  0.43012826  0.90860746  0.63758734     0.31500
H518        H  0.32615816  0.67723893  0.56662427     0.35500
H519        H  0.33101901  0.88951021  0.57263712     0.28200
H520        H  0.42330621  0.65571771  0.68069494     0.32500
H521        H  0.43013516  0.87063111  0.68545633     0.35300
H522        H  0.43206997  0.70899587  0.57197011     0.27900
H523        H  0.31535374  0.84823885  0.57355081     0.40800
H524        H  0.32108134  0.68946180  0.66993762     0.30800
H525        H  0.32342631  0.65675994  0.62960793     0.38500
H526        H  0.43821863  0.86607366  0.62599266     0.30300
H527        H  0.34859649  0.82110846  0.69953544     0.30400
H528        H  0.43310699  0.70140312  0.68682507     0.30600
Zr529      Zr  0.90494989  0.99572501  0.64928023     2.17500
O530        O  0.93616996  0.96139295  0.66957313    -0.51700
O531        O  0.89663606  0.91992963  0.64139933    -0.74900
O532        O  0.89479084  0.98607916  0.69032506    -0.81700
O533        O  0.94940356  0.02859880  0.60306622    -0.83500
O534        O  0.86033361  0.01715161  0.69582263    -0.79100
O535        O  0.94447981  0.99348950  0.63690395    -0.90700
O536        O  0.86906390  0.91394342  0.61423292    -0.76700
O537        O  0.86524836  0.98556414  0.64249990    -0.86200
O538        O  0.90031190  0.99387897  0.60854332    -0.85900
O539        O  0.88843504  0.05831768  0.66643367    -0.72600
O540        O  0.91936824  0.06284813  0.63448168    -0.84700
Zr541      Zr  0.85501781  0.11339098  0.60494544     2.26400
Zr542      Zr  0.84835974  0.04730774  0.65961703     2.06300
Zr543      Zr  0.91326341  0.06162501  0.59392261     2.10000
Zr544      Zr  0.86056469  0.98525902  0.60177284     1.78800
O545        O  0.94076907  0.11971576  0.58833963    -0.93600
O546        O  0.82322608  0.95160989  0.60778047    -0.41400
O547        O  0.87314679  0.05283553  0.58701232    -0.78000
O548        O  0.84201951  0.04459201  0.61895129    -0.96700
O549        O  0.86094706  0.11564294  0.64535872    -0.90000
O550        O  0.89523151  0.12291269  0.61028392    -0.92800
C551        C  0.88316126  0.89784744  0.62847469     1.00900
C552        C  0.95663937  0.00596586  0.61980492     1.13900
C553        C  0.87779535  0.99678275  0.70327296     1.04600
O554        O  0.82414852  0.98476504  0.66660709    -0.95000
O555        O  0.81120559  0.07552488  0.65034529    -0.90700
O556        O  0.81437202  0.10993829  0.61618747    -0.83900
C557        C  0.80253340  0.09435278  0.63298547     1.11300
O558        O  0.93021623  0.12346675  0.68057325    -0.97000
Zr559      Zr  0.90118554  0.12432485  0.65058123     1.88900
O560        O  0.86264342  0.18979862  0.61291916    -0.73600
O561        O  0.83325173  0.08714381  0.69221944    -0.52900
O562        O  0.88565378  0.15463589  0.68584688    -0.97500
O563        O  0.93662613  0.16205392  0.64080682    -0.54800
O564        O  0.88982697  0.19528750  0.64042668    -0.74100
C565        C  0.87583326  0.21183539  0.62622292     0.98200
O566        O  0.82591812  0.15117928  0.58302576    -0.62900
O567        O  0.92641722  0.02108257  0.56064090    -0.57700
O568        O  0.86504397  0.11776933  0.56414299    -0.94400
O569        O  0.90114669  0.09358433  0.55819905    -0.92900
O570        O  0.87682664  0.94937064  0.56843205    -0.93200
O571        O  0.83579675  0.99011504  0.56831272    -0.92000
C572        C  0.88251544  0.11055374  0.55122538     1.17100
H573        H  0.90887722  0.97055309  0.60196742     0.33000
H574        H  0.82630587  0.03819986  0.61518712     0.43900
H575        H  0.90073085  0.14866977  0.60287292     0.37400
H576        H  0.89222371  0.06168424  0.68242079     0.33900
H577        H  0.82403914  0.92402542  0.59944361     0.25700
H578        H  0.82776710  0.11456640  0.68586072     0.31600
H579        H  0.87061726  0.16655434  0.68150874     0.37500
H580        H  0.86920550  0.92092580  0.56802517     0.32000
H581        H  0.94299114  0.02758467  0.55920877     0.30800
H582        H  0.95020766  0.11047087  0.57513992     0.32500
H583        H  0.93316723  0.17828578  0.62667651     0.31500
H584        H  0.82777841  0.01769362  0.57020221     0.35500
H585        H  0.83432219  0.17244079  0.57355851     0.28200
H586        H  0.92932806  0.93547490  0.67664227     0.32500
H587        H  0.93106929  0.15318459  0.68646702     0.35300
H588        H  0.92565571  0.99065607  0.56531742     0.27900
H589        H  0.81988917  0.12997314  0.57186883     0.40800
H590        H  0.82051582  0.98562010  0.68320191     0.30800
H591        H  0.82311525  0.94344940  0.62418538     0.38500
H592        H  0.94718901  0.13933355  0.63569055     0.30300
H593        H  0.81917619  0.07141285  0.69682981     0.30400
H594        H  0.94010895  0.98080313  0.68242824     0.30600
Zr595      Zr  0.90313736  0.49359460  0.65115949     2.17500
O596        O  0.93519061  0.45999186  0.67050281    -0.51700
O597        O  0.89285871  0.41855914  0.64289999    -0.74900
O598        O  0.89240949  0.48448768  0.69211285    -0.81700
O599        O  0.94947192  0.52652085  0.60693961    -0.83500
O600        O  0.85841774  0.51714040  0.69746661    -0.79100
O601        O  0.94260766  0.48581662  0.63860242    -0.90700
O602        O  0.86686493  0.41591919  0.61413949    -0.76700
O603        O  0.86297219  0.48874575  0.64501319    -0.86200
O604        O  0.89812454  0.49195685  0.61054851    -0.85900
O605        O  0.88888894  0.55837285  0.66834212    -0.72600
O606        O  0.91942159  0.55905980  0.63611773    -0.84700
Zr607      Zr  0.85676593  0.61651151  0.60651980     2.26400
Zr608      Zr  0.84843960  0.55303549  0.66196596     2.06300
Zr609      Zr  0.91335321  0.55776917  0.59562490     2.10000
Zr610      Zr  0.85807583  0.48844950  0.60429553     1.78800
O611        O  0.94336394  0.60910043  0.58557755    -0.93600
O612        O  0.82121643  0.45389477  0.61169746    -0.41400
O613        O  0.87299805  0.55389020  0.58918556    -0.78000
O614        O  0.84151363  0.54990990  0.62132865    -0.96700
O615        O  0.86321115  0.61918739  0.64693153    -0.90000
O616        O  0.89733453  0.62145450  0.61164628    -0.92800
C617        C  0.87994736  0.39795903  0.62871896     1.00900
C618        C  0.95577234  0.50099680  0.62289174     1.13900
C619        C  0.87551875  0.49584109  0.70506108     1.04600
O620        O  0.81718392  0.50505802  0.67290639    -0.95000
O621        O  0.81219582  0.58528131  0.65289085    -0.90700
O622        O  0.81605370  0.61921901  0.61863527    -0.83900
C623        C  0.80395754  0.60583171  0.63584612     1.11300
O624        O  0.93155083  0.61903814  0.68301999    -0.97000
Zr625      Zr  0.90369978  0.62296404  0.65195644     1.88900
O626        O  0.86506873  0.69157292  0.61654484    -0.73600
O627        O  0.84031222  0.60219380  0.69336976    -0.52900
O628        O  0.88938692  0.66091629  0.68555071    -0.97500
O629        O  0.94114328  0.65253055  0.64164479    -0.54800
O630        O  0.89526727  0.69512693  0.64091790    -0.74100
C631        C  0.87987880  0.71252014  0.62857051     0.98200
O632        O  0.83229518  0.65213745  0.57867307    -0.62900
O633        O  0.92295350  0.50926787  0.56430369    -0.57700
O634        O  0.86786343  0.62173165  0.56570590    -0.94400
O635        O  0.90250729  0.59096846  0.55977938    -0.92900
O636        O  0.87299629  0.45913654  0.56858616    -0.93200
O637        O  0.83007800  0.49580162  0.57367678    -0.92000
C638        C  0.88497780  0.61159511  0.55276630     1.17100
H639        H  0.90577217  0.46759203  0.60391334     0.33000
H640        H  0.82552647  0.54553873  0.61788624     0.43900
H641        H  0.90360358  0.64644048  0.60406629     0.37400
H642        H  0.89262996  0.56075726  0.68439873     0.33900
H643        H  0.82160280  0.42691520  0.60277185     0.25700
H644        H  0.82818558  0.58762064  0.70243245     0.31600
H645        H  0.89022547  0.64011863  0.69831021     0.37500
H646        H  0.86576251  0.43045560  0.56725723     0.32000
H647        H  0.93462679  0.52494701  0.55517467     0.30800
H648        H  0.95313982  0.59384792  0.57439537     0.32500
H649        H  0.94102787  0.68234718  0.64742400     0.31500
H650        H  0.82854137  0.52709698  0.57158709     0.35500
H651        H  0.81972286  0.63161841  0.57524455     0.28200
H652        H  0.92880719  0.43386061  0.67767060     0.32500
H653        H  0.93434220  0.64900842  0.68790338     0.35300
H654        H  0.93147570  0.48553733  0.57146052     0.27900
H655        H  0.82492867  0.67588408  0.58708077     0.40800
H656        H  0.80998851  0.49648984  0.65821812     0.30800
H657        H  0.82204045  0.44458983  0.62790131     0.38500
H658        H  0.94081679  0.65551601  0.62475304     0.30300
H659        H  0.85401294  0.60122667  0.70331981     0.30400
H660        H  0.93935319  0.47922231  0.68333838     0.30600
Zr661      Zr  0.90315685  0.46462573  0.85620581     2.17500
O662        O  0.93211391  0.49675578  0.83113952    -0.51700
O663        O  0.89517570  0.53992035  0.86435832    -0.74900
O664        O  0.88991766  0.47361370  0.81630657    -0.81700
O665        O  0.94845239  0.43768832  0.90178191    -0.83500
O666        O  0.85550118  0.44060149  0.81128802    -0.79100
O667        O  0.94335931  0.46957983  0.86703620    -0.90700
O668        O  0.86801259  0.54389939  0.89209814    -0.76700
O669        O  0.86295366  0.46805463  0.86226807    -0.86200
O670        O  0.89795851  0.46912494  0.89686590    -0.85900
O671        O  0.88859922  0.39915852  0.83983964    -0.72600
O672        O  0.91921755  0.40106275  0.87277052    -0.84700
Zr673      Zr  0.85657120  0.34225069  0.90236199     2.26400
Zr674      Zr  0.84824334  0.40234965  0.84657984     2.06300
Zr675      Zr  0.91249731  0.40454355  0.91330134     2.10000
Zr676      Zr  0.85788101  0.47166556  0.90288862     1.78800
O677        O  0.94401807  0.35888412  0.92474188    -0.93600
O678        O  0.82198389  0.50703214  0.89392555    -0.41400
O679        O  0.87211461  0.40689074  0.91917892    -0.78000
O680        O  0.84145299  0.40819886  0.88710941    -0.96700
O681        O  0.86323525  0.33745274  0.86208772    -0.90000
O682        O  0.89713683  0.33955005  0.89749164    -0.92800
C683        C  0.88188090  0.56107541  0.87771626     1.00900
C684        C  0.95569404  0.45872227  0.88426352     1.13900
C685        C  0.87242320  0.46307185  0.80397588     1.04600
O686        O  0.81541149  0.44276069  0.83337891    -0.95000
O687        O  0.81167330  0.37219509  0.85649074    -0.90700
O688        O  0.81579824  0.33887412  0.89092245    -0.83900
C689        C  0.80367798  0.35239493  0.87396749     1.11300
O690        O  0.93555126  0.34364215  0.83005388    -0.97000
Zr691      Zr  0.90386970  0.33633663  0.85719263     1.88900
O692        O  0.86593876  0.26716478  0.89320005    -0.73600
O693        O  0.84348838  0.34660556  0.81767994    -0.52900
O694        O  0.89605091  0.30478088  0.81972463    -0.97500
O695        O  0.93722793  0.30127613  0.87357358    -0.54800
O696        O  0.89223513  0.26383649  0.86455004    -0.74100
C697        C  0.87878639  0.24632080  0.87915234     0.98200
O698        O  0.83338694  0.30088310  0.92946601    -0.62900
O699        O  0.91974575  0.45623412  0.94392475    -0.57700
O700        O  0.86587950  0.33957941  0.94333088    -0.94400
O701        O  0.90106004  0.36958492  0.94911043    -0.92900
O702        O  0.87111973  0.50458000  0.93843682    -0.93200
O703        O  0.82908848  0.46487007  0.93299367    -0.92000
C704        C  0.88291709  0.34997546  0.95622812     1.17100
H705        H  0.90565923  0.49402929  0.90310393     0.33000
H706        H  0.82553959  0.41258772  0.89070897     0.43900
H707        H  0.90342491  0.31505505  0.90528126     0.37400
H708        H  0.89203619  0.39683396  0.82368294     0.33900
H709        H  0.82263108  0.53442596  0.90248313     0.25700
H710        H  0.82910192  0.35397728  0.80970366     0.31600
H711        H  0.88086165  0.29075612  0.82135173     0.37500
H712        H  0.86530668  0.53423882  0.93793761     0.32000
H713        H  0.92992994  0.44122081  0.95476212     0.30800
H714        H  0.95147161  0.37440546  0.93757652     0.32500
H715        H  0.94998161  0.32218587  0.87198506     0.31500
H716        H  0.82573887  0.43378146  0.93387243     0.35500
H717        H  0.81953790  0.31803382  0.93255225     0.28200
H718        H  0.92488495  0.52212260  0.82417029     0.32500
H719        H  0.94039921  0.31413636  0.82635145     0.35300
H720        H  0.92961156  0.47871796  0.93700195     0.27900
H721        H  0.82783086  0.27562892  0.92076850     0.40800
H722        H  0.81278357  0.46428450  0.84555574     0.30800
H723        H  0.82349336  0.51546921  0.87762165     0.38500
H724        H  0.94100506  0.27776730  0.86284425     0.30300
H725        H  0.85567242  0.35248463  0.80623573     0.30400
H726        H  0.93413358  0.47631315  0.81830636     0.30600
Zr727      Zr  0.90290020  0.96437480  0.85445596     2.17500
O728        O  0.93256857  0.99577211  0.83000877    -0.51700
O729        O  0.89411715  0.03981161  0.86266238    -0.74900
O730        O  0.89043686  0.97395223  0.81442052    -0.81700
O731        O  0.94898377  0.92987669  0.89881371    -0.83500
O732        O  0.85659276  0.93950793  0.80881137    -0.79100
O733        O  0.94320922  0.96738288  0.86591667    -0.90700
O734        O  0.86781919  0.04322769  0.89131566    -0.76700
O735        O  0.86264770  0.96797229  0.86012692    -0.86200
O736        O  0.89719222  0.96802860  0.89505426    -0.85900
O737        O  0.88803723  0.89926639  0.83764653    -0.72600
O738        O  0.91872715  0.90021653  0.87038214    -0.84700
Zr739      Zr  0.85591781  0.84200692  0.89971828     2.26400
Zr740      Zr  0.84755330  0.90285667  0.84414631     2.06300
Zr741      Zr  0.91190736  0.90298937  0.91073325     2.10000
Zr742      Zr  0.85692772  0.97081328  0.90061520     1.78800
O743        O  0.94061341  0.85276564  0.92396958    -0.93600
O744        O  0.82157774  0.00451288  0.88814471    -0.41400
O745        O  0.87153198  0.90619389  0.91684031    -0.78000
O746        O  0.84062712  0.90772409  0.88460874    -0.96700
O747        O  0.86270844  0.83785454  0.85940629    -0.90000
O748        O  0.89642916  0.83852016  0.89467758    -0.92800
C749        C  0.88119459  0.06071698  0.87658992     1.00900
C750        C  0.95610899  0.95257158  0.88189903     1.13900
C751        C  0.87334943  0.96262947  0.80172021     1.04600
O752        O  0.81632243  0.95007322  0.83378046    -0.95000
O753        O  0.81094609  0.87124680  0.85370649    -0.90700
O754        O  0.81518839  0.83918372  0.88847869    -0.83900
C755        C  0.80301602  0.85201561  0.87144236     1.11300
O756        O  0.93353930  0.84533605  0.82576864    -0.97000
Zr757      Zr  0.90334726  0.83607483  0.85439070     1.88900
O758        O  0.86531605  0.76726306  0.89046125    -0.73600
O759        O  0.83914179  0.85126103  0.81386172    -0.52900
O760        O  0.89311627  0.80136003  0.81832207    -0.97500
O761        O  0.93953243  0.80489811  0.86662691    -0.54800
O762        O  0.89360363  0.76360081  0.86380622    -0.74100
C763        C  0.87924351  0.74632840  0.87758445     0.98200
O764        O  0.83186277  0.79990529  0.92571900    -0.62900
O765        O  0.92218824  0.95691330  0.93924717    -0.57700
O766        O  0.86523207  0.83993985  0.94075489    -0.94400
O767        O  0.90039623  0.86985117  0.94650493    -0.92900
O768        O  0.86646299  0.00538740  0.93685250    -0.93200
O769        O  0.82660151  0.96349702  0.92921159    -0.92000
C770        C  0.88229101  0.85040588  0.95362126     1.17100
H771        H  0.90487821  0.99270788  0.90156201     0.33000
H772        H  0.82470835  0.91224401  0.88811703     0.43900
H773        H  0.90261378  0.81390635  0.90243512     0.37400
H774        H  0.89163884  0.89698030  0.82153010     0.33900
H775        H  0.81923081  0.02837391  0.89907615     0.25700
H776        H  0.82608821  0.86366747  0.80542730     0.31600
H777        H  0.87791659  0.78806345  0.82117136     0.37500
H778        H  0.86916440  0.98153889  0.94764261     0.32000
H779        H  0.90904017  0.95748622  0.94998463     0.30800
H780        H  0.94782091  0.86697247  0.93736176     0.32500
H781        H  0.93769015  0.77360411  0.86455649     0.31500
H782        H  0.82352932  0.93232508  0.93017755     0.35500
H783        H  0.81865875  0.81817854  0.92967486     0.28200
H784        H  0.92570427  0.02159163  0.82311957     0.32500
H785        H  0.93757177  0.81608232  0.82070885     0.35300
H786        H  0.93470971  0.94387617  0.94819270     0.27900
H787        H  0.82532304  0.77643451  0.91629015     0.40800
H788        H  0.82217553  0.97928521  0.83701858     0.30800
H789        H  0.82557261  0.01884346  0.87351732     0.38500
H790        H  0.94009337  0.80906141  0.88344671     0.30300
H791        H  0.85223361  0.85359782  0.80309157     0.30400
H792        H  0.93452557  0.97549163  0.81708705     0.30600
Zr793      Zr  0.10464026  0.98947788  0.85383464     2.17500
O794        O  0.07356725  0.96664652  0.82854993    -0.51700
O795        O  0.11221577  0.91352829  0.86077072    -0.74900
O796        O  0.11761928  0.97646448  0.81444251    -0.81700
O797        O  0.05835409  0.02560307  0.89603079    -0.83500
O798        O  0.15268952  0.00709708  0.80980009    -0.79100
O799        O  0.06486092  0.98205159  0.86539190    -0.90700
O800        O  0.13933059  0.90863514  0.88841197    -0.76700
O801        O  0.14412340  0.98017256  0.86195985    -0.86200
O802        O  0.10758498  0.98734882  0.89464565    -0.85900
O803        O  0.12266669  0.05181288  0.83731233    -0.72600
O804        O  0.09035496  0.05666884  0.86793215    -0.84700
Zr805      Zr  0.15357483  0.10832978  0.90038006     2.26400
Zr806      Zr  0.16237322  0.04222393  0.84588856     2.06300
Zr807      Zr  0.09474263  0.05518238  0.90873417     2.10000
Zr808      Zr  0.14707303  0.97944413  0.90277349     1.78800
O809        O  0.06810480  0.11257247  0.91741741    -0.93600
O810        O  0.18457408  0.94642960  0.89907971    -0.41400
O811        O  0.13451578  0.04704469  0.91696439    -0.78000
O812        O  0.16687783  0.03962702  0.88687515    -0.96700
O813        O  0.14947810  0.11031518  0.85967568    -0.90000
O814        O  0.11358841  0.11695591  0.89305336    -0.92800
C815        C  0.12572868  0.89201335  0.87368475     1.00900
C816        C  0.05175423  0.99932402  0.88040320     1.13900
C817        C  0.13528488  0.98613389  0.80218042     1.04600
O818        O  0.19197382  0.98899405  0.83961125    -0.95000
O819        O  0.19893041  0.07244637  0.85629514    -0.90700
O820        O  0.19489612  0.10684029  0.89047310    -0.83900
C821        C  0.20714729  0.09192810  0.87383674     1.11300
O822        O  0.08255386  0.11647453  0.82050347    -0.97000
Zr823      Zr  0.10954029  0.11810956  0.85239396     1.88900
O824        O  0.14527373  0.18441302  0.89260087    -0.73600
O825        O  0.17603481  0.08851790  0.81508752    -0.52900
O826        O  0.12513871  0.14899006  0.81720987    -0.97500
O827        O  0.07369687  0.15372325  0.86178846    -0.54800
O828        O  0.12096210  0.18972781  0.86243682    -0.74100
C829        C  0.13335910  0.20620862  0.87823105     0.98200
O830        O  0.18069112  0.14837804  0.92403337    -0.62900
O831        O  0.07872322  0.01202468  0.93981560    -0.57700
O832        O  0.14300654  0.11022086  0.94135902    -0.94400
O833        O  0.10742416  0.08168013  0.94582533    -0.92900
O834        O  0.12767908  0.94582961  0.93529665    -0.93200
O835        O  0.16960398  0.97794310  0.93788191    -0.92000
C836        C  0.12552689  0.09988027  0.95379347     1.17100
H837        H  0.09855198  0.96392805  0.90073969     0.33000
H838        H  0.18249241  0.03407182  0.89119054     0.43900
H839        H  0.10766854  0.14250846  0.90016367     0.37400
H840        H  0.11991478  0.05402844  0.82105005     0.33900
H841        H  0.18192961  0.91555212  0.90198559     0.25700
H842        H  0.18719266  0.07094889  0.80650457     0.31600
H843        H  0.14052325  0.15995865  0.82144891     0.37500
H844        H  0.12027285  0.91965352  0.92908246     0.32000
H845        H  0.06341091  0.02420844  0.94282344     0.30800
H846        H  0.05717864  0.09999734  0.92859603     0.32500
H847        H  0.07800045  0.17853031  0.87149989     0.31500
H848        H  0.17062165  0.00823204  0.94282964     0.35500
H849        H  0.17173383  0.17101285  0.93173726     0.28200
H850        H  0.07854015  0.93926397  0.82166033     0.32500
H851        H  0.07951189  0.14682964  0.81680911     0.35300
H852        H  0.07550373  0.98352798  0.93305562     0.27900
H853        H  0.18532619  0.12871142  0.93646784     0.40800
H854        H  0.18364798  0.96131053  0.83858740     0.30800
H855        H  0.18820640  0.94810917  0.88250987     0.38500
H856        H  0.06568382  0.13386281  0.87237958     0.30300
H857        H  0.16283194  0.09128862  0.80458047     0.30400
H858        H  0.07356735  0.98741236  0.81572382     0.30600
Zr859      Zr  0.10538731  0.48602111  0.85526286     2.17500
O860        O  0.07676464  0.44767224  0.83252435    -0.51700
O861        O  0.11531644  0.41134867  0.86359914    -0.74900
O862        O  0.11736995  0.47779635  0.81474518    -0.81700
O863        O  0.05938447  0.51970842  0.89919130    -0.83500
O864        O  0.15097892  0.51330132  0.80891202    -0.79100
O865        O  0.06518068  0.48121782  0.86650335    -0.90700
O866        O  0.14029675  0.40925833  0.89331126    -0.76700
O867        O  0.14543133  0.48253938  0.86200203    -0.86200
O868        O  0.10993732  0.48484441  0.89604082    -0.85900
O869        O  0.12005139  0.55090092  0.83813381    -0.72600
O870        O  0.08931179  0.55119033  0.87023733    -0.84700
Zr871      Zr  0.15206127  0.61183519  0.89928486     2.26400
Zr872      Zr  0.16040104  0.54698144  0.84511272     2.06300
Zr873      Zr  0.09559169  0.55121885  0.91076629     2.10000
Zr874      Zr  0.14986883  0.48224312  0.90271678     1.78800
O875        O  0.06518754  0.60027455  0.92145012    -0.93600
O876        O  0.18605536  0.44656306  0.89475128    -0.41400
O877        O  0.13593220  0.54875156  0.91722838    -0.78000
O878        O  0.16668865  0.54424035  0.88580853    -0.96700
O879        O  0.14545528  0.61325634  0.85901125    -0.90000
O880        O  0.11143621  0.61519006  0.89425461    -0.92800
C881        C  0.12791614  0.39118334  0.87799801     1.00900
C882        C  0.05245793  0.49546195  0.88277391     1.13900
C883        C  0.13402741  0.49067287  0.80176853     1.04600
O884        O  0.19038664  0.49907277  0.83204868    -0.95000
O885        O  0.19757005  0.57432281  0.85475199    -0.90700
O886        O  0.19302887  0.61250027  0.88768362    -0.83900
C887        C  0.20543263  0.59617939  0.87157299     1.11300
O888        O  0.07528806  0.60899257  0.82467860    -0.97000
Zr889      Zr  0.10491064  0.61511825  0.85396655     1.88900
O890        O  0.14402894  0.68661916  0.88813692    -0.73600
O891        O  0.17094797  0.60503646  0.81927388    -0.52900
O892        O  0.11531916  0.64694194  0.81718033    -0.97500
O893        O  0.06842915  0.64494664  0.86628615    -0.54800
O894        O  0.11487782  0.68817036  0.86250339    -0.74100
C895        C  0.12982427  0.70665059  0.87517573     0.98200
O896        O  0.17616662  0.65429140  0.92488710    -0.62900
O897        O  0.08438955  0.50161393  0.94111740    -0.57700
O898        O  0.14234692  0.61726097  0.94029448    -0.94400
O899        O  0.10781635  0.58507970  0.94640499    -0.92900
O900        O  0.13378070  0.45575333  0.93862978    -0.93200
O901        O  0.17816222  0.48499635  0.93335733    -0.92000
C902        C  0.12560348  0.60581858  0.95343983     1.17100
H903        H  0.10196903  0.46066396  0.90275650     0.33000
H904        H  0.18245965  0.53985969  0.88983255     0.43900
H905        H  0.10517140  0.64025029  0.90159313     0.37400
H906        H  0.11636870  0.55339999  0.82208866     0.33900
H907        H  0.18324076  0.42969227  0.88062641     0.25700
H908        H  0.18348774  0.59346702  0.80971799     0.31600
H909        H  0.12943233  0.66378138  0.82024450     0.37500
H910        H  0.14150931  0.42814536  0.94132635     0.32000
H911        H  0.09718670  0.50242940  0.95222166     0.30800
H912        H  0.05917009  0.58912329  0.93619414     0.32500
H913        H  0.07244163  0.66917320  0.87652362     0.31500
H914        H  0.18630668  0.51262601  0.93114050     0.35500
H915        H  0.19022073  0.63751479  0.92753076     0.28200
H916        H  0.08480385  0.42276516  0.82588785     0.32500
H917        H  0.07074767  0.63871011  0.82109650     0.35300
H918        H  0.07161362  0.51586808  0.94919146     0.27900
H919        H  0.18124016  0.67938620  0.91586242     0.40800
H920        H  0.19408232  0.48157031  0.84567151     0.30800
H921        H  0.19683132  0.46945548  0.88986556     0.38500
H922        H  0.06168899  0.62304999  0.87660537     0.30300
H923        H  0.15783158  0.60787099  0.80872876     0.30400
H924        H  0.07341530  0.46643503  0.81929252     0.30600
Zr925      Zr  0.10155363  0.45012332  0.65256311     2.17500
O926        O  0.07080609  0.47364806  0.67796226    -0.51700
O927        O  0.11033722  0.52598086  0.64647703    -0.74900
O928        O  0.11363434  0.45990415  0.69264400    -0.81700
O929        O  0.05649071  0.42108784  0.60721335    -0.83500
O930        O  0.14648459  0.42293731  0.69837663    -0.79100
O931        O  0.06232902  0.45967365  0.63984410    -0.90700
O932        O  0.13502408  0.53240981  0.61651219    -0.76700
O933        O  0.14161521  0.45802178  0.64622898    -0.86200
O934        O  0.10674295  0.45559050  0.61198044    -0.85900
O935        O  0.11715471  0.38527218  0.66795807    -0.72600
O936        O  0.08607291  0.38533555  0.63613479    -0.84700
Zr937      Zr  0.14984293  0.33289697  0.60505184     2.26400
Zr938      Zr  0.15747096  0.39388869  0.66145836     2.06300
Zr939      Zr  0.09266455  0.39004336  0.59574709     2.10000
Zr940      Zr  0.14677250  0.46163016  0.60564117     1.78800
O941        O  0.06499447  0.33553615  0.58400771    -0.93600
O942        O  0.18159514  0.50217404  0.61431213    -0.41400
O943        O  0.13301754  0.39642083  0.58917407    -0.78000
O944        O  0.16426636  0.39937015  0.62098335    -0.96700
O945        O  0.14336658  0.32808543  0.64535909    -0.90000
O946        O  0.10935336  0.32572283  0.61022465    -0.92800
C947        C  0.12238837  0.54818034  0.63227860     1.00900
C948        C  0.04961941  0.44546639  0.62351673     1.13900
C949        C  0.12991383  0.44611433  0.70542930     1.04600
O950        O  0.18375838  0.45319955  0.66893207    -0.95000
O951        O  0.19391119  0.36291410  0.65218890    -0.90700
O952        O  0.19032080  0.33074689  0.61740208    -0.83900
C953        C  0.20227636  0.34376920  0.63472992     1.11300
O954        O  0.07402444  0.32106040  0.68061457    -0.97000
Zr955      Zr  0.10299306  0.32149530  0.65044006     1.88900
O956        O  0.14088450  0.25627857  0.61166713    -0.73600
O957        O  0.17291502  0.34820045  0.69138079    -0.52900
O958        O  0.11539200  0.28651162  0.68556617    -0.97500
O959        O  0.06668017  0.29109404  0.63736004    -0.54800
O960        O  0.11396604  0.25037575  0.63962625    -0.74100
C961        C  0.12778760  0.23406823  0.62506887     0.98200
O962        O  0.17808014  0.29498951  0.58191750    -0.62900
O963        O  0.07923825  0.43916325  0.56633320    -0.57700
O964        O  0.14050619  0.33569871  0.56374047    -0.94400
O965        O  0.10492033  0.36308047  0.55891980    -0.92900
O966        O  0.13275788  0.48758838  0.56893223    -0.93200
O967        O  0.17718807  0.46075505  0.57697545    -0.92000
C968        C  0.12335581  0.34645344  0.55113892     1.17100
H969        H  0.09860273  0.47978306  0.60583947     0.33000
H970        H  0.18021048  0.40443939  0.61755960     0.43900
H971        H  0.10334982  0.30102037  0.60218083     0.37400
H972        H  0.11338932  0.38168749  0.68395320     0.33900
H973        H  0.17964297  0.53019322  0.60666293     0.25700
H974        H  0.17952665  0.36795162  0.70295697     0.31600
H975        H  0.13072501  0.27498812  0.68194860     0.37500
H976        H  0.12208028  0.51094276  0.57282968     0.32000
H977        H  0.09316333  0.44784796  0.55775125     0.30800
H978        H  0.05829245  0.34662910  0.56962764     0.32500
H979        H  0.07083522  0.26916511  0.62584349     0.31500
H980        H  0.18260199  0.43081266  0.57681683     0.35500
H981        H  0.16940501  0.27831274  0.57033122     0.28200
H982        H  0.07626634  0.50079585  0.68493803     0.32500
H983        H  0.07025557  0.29049466  0.68328938     0.35300
H984        H  0.07048709  0.42105998  0.55542227     0.27900
H985        H  0.18631653  0.31742051  0.57311812     0.40800
H986        H  0.18816074  0.45006087  0.68523390     0.30800
H987        H  0.18051282  0.50871200  0.63090171     0.38500
H988        H  0.05951302  0.31415728  0.62832604     0.30300
H989        H  0.15932583  0.33527607  0.69891889     0.30400
H990        H  0.07023306  0.45276939  0.69073067     0.30600
Zr991      Zr  0.10074299  0.95218820  0.65040126     2.17500
O992        O  0.06890835  0.98632326  0.67009887    -0.51700
O993        O  0.11121747  0.02700797  0.64171397    -0.74900
O994        O  0.11247205  0.96467017  0.69080069    -0.81700
O995        O  0.05496895  0.91705843  0.60622386    -0.83500
O996        O  0.14683402  0.93322715  0.69578965    -0.79100
O997        O  0.06140071  0.95889913  0.63758286    -0.90700
O998        O  0.13501384  0.02937821  0.61100088    -0.76700
O999        O  0.14043693  0.95911826  0.64265804    -0.86200
O1000       O  0.10482023  0.95052303  0.60960519    -0.85900
O1001       O  0.11665067  0.88971891  0.66843438    -0.72600
O1002       O  0.08485040  0.88483905  0.63726687    -0.84700
Zr1003     Zr  0.14779132  0.82806872  0.60733100     2.26400
Zr1004     Zr  0.15677462  0.89761184  0.66042969     2.06300
Zr1005     Zr  0.09045163  0.88256494  0.59662312     2.10000
Zr1006     Zr  0.14460719  0.95643884  0.60204753     1.78800
O1007       O  0.06148111  0.82683446  0.59142969    -0.93600
O1008       O  0.18115059  0.99160666  0.61004495    -0.41400
O1009       O  0.13045223  0.88870164  0.58909313    -0.78000
O1010       O  0.16251386  0.89687407  0.61964467    -0.96700
O1011       O  0.14240573  0.82912287  0.64798000    -0.90000
O1012       O  0.10747024  0.82128745  0.61375083    -0.92800
C1013       C  0.12325300  0.04755961  0.62672684     1.00900
C1014       C  0.04857937  0.94352852  0.62166979     1.13900
C1015       C  0.12978729  0.95457064  0.70341240     1.04600
O1016       O  0.18329329  0.95678089  0.66762985    -0.95000
O1017       O  0.19357927  0.86789386  0.65095555    -0.90700
O1018       O  0.18871032  0.82843819  0.61854828    -0.83900
C1019       C  0.20134437  0.84524867  0.63442320     1.11300
O1020       O  0.07512169  0.83308720  0.68588327    -0.97000
Zr1021     Zr  0.10202067  0.82338040  0.65424990     1.88900
O1022       O  0.13826095  0.75323163  0.61732837    -0.73600
O1023       O  0.17138876  0.85597129  0.69246169    -0.52900
O1024       O  0.11438318  0.78978778  0.68976605    -0.97500
O1025       O  0.06570817  0.78820057  0.64482530    -0.54800
O1026       O  0.11169913  0.75060434  0.64583606    -0.74100
C1027       C  0.12495377  0.73283894  0.63129940     0.98200
O1028       O  0.17182040  0.78537224  0.58192182    -0.62900
O1029       O  0.07740658  0.92209780  0.56312252    -0.57700
O1030       O  0.13834797  0.82471274  0.56619912    -0.94400
O1031       O  0.10242491  0.84989094  0.56089899    -0.92900
O1032       O  0.13027113  0.98699673  0.56650962    -0.93200
O1033       O  0.17210412  0.94738645  0.57096029    -0.92000
C1034       C  0.12086798  0.83274611  0.55344572     1.17100
H1035       H  0.09658509  0.97378783  0.60262385     0.33000
H1036       H  0.17827270  0.90157671  0.61535653     0.43900
H1037       H  0.10130229  0.79548116  0.60691731     0.37400
H1038       H  0.11339992  0.88816174  0.68463455     0.33900
H1039       H  0.18205200  0.01563784  0.59901031     0.25700
H1040       H  0.18240160  0.87539201  0.70025651     0.31600
H1041       H  0.13118126  0.79424884  0.69013669     0.37500
H1042       H  0.12671720  0.96196021  0.55666122     0.32000
H1043       H  0.06218042  0.90966662  0.55947572     0.30800
H1044       H  0.05506414  0.83211809  0.57600002     0.32500
H1045       H  0.06925740  0.76790065  0.63228157     0.31500
H1046       H  0.17067668  0.91684376  0.56657374     0.35500
H1047       H  0.18383537  0.80519099  0.57611578     0.28200
H1048       H  0.07508364  0.01381352  0.67593209     0.32500
H1049       H  0.06822684  0.80450075  0.68872459     0.35300
H1050       H  0.07412851  0.95134538  0.56870996     0.27900
H1051       H  0.17998684  0.76501324  0.59194129     0.40800
H1052       H  0.17382682  0.98286231  0.66852939     0.30800
H1053       H  0.17901355  0.00558602  0.62514246     0.38500
H1054       H  0.05644632  0.81067457  0.63744790     0.30300
H1055       H  0.15838792  0.85327785  0.70332069     0.30400
H1056       H  0.06571801  0.96870841  0.68382960     0.30600
Zr1057     Zr  0.35624917  0.07607209  0.10575706     2.17500
O1058       O  0.32763970  0.03451461  0.08483877    -0.51700
O1059       O  0.36558843  0.00153035  0.11512456    -0.74900
O1060       O  0.36635021  0.06774262  0.06485046    -0.81700
O1061       O  0.31085865  0.11584071  0.14906972    -0.83500
O1062       O  0.40179250  0.09632899  0.05922094    -0.79100
O1063       O  0.31524629  0.07826158  0.11596039    -0.90700
O1064       O  0.39340849  0.99909181  0.14208993    -0.76700
O1065       O  0.39649972  0.07083504  0.11158820    -0.86200
O1066       O  0.36208454  0.07482277  0.14633699    -0.85900
O1067       O  0.37210948  0.13987073  0.08819870    -0.72600
O1068       O  0.34148638  0.14222532  0.12040306    -0.84700
Zr1069     Zr  0.40458921  0.20054110  0.14892559     2.26400
Zr1070     Zr  0.41246474  0.13379764  0.09432723     2.06300
Zr1071     Zr  0.34812955  0.14154637  0.16069800     2.10000
Zr1072     Zr  0.40242292  0.07174775  0.15208427     1.78800
O1073       O  0.31848277  0.19187680  0.17196491    -0.93600
O1074       O  0.43843121  0.03698711  0.14263819    -0.41400
O1075       O  0.38842183  0.13790210  0.16684650    -0.78000
O1076       O  0.41965550  0.13354777  0.13495523    -0.96700
O1077       O  0.39827071  0.20079700  0.10851478    -0.90000
O1078       O  0.36422029  0.20491710  0.14395028    -0.92800
C1079       C  0.37929132  0.98110432  0.12836035     1.00900
C1080       C  0.30287426  0.09443070  0.13207078     1.13900
C1081       C  0.38361868  0.07719919  0.05195135     1.04600
O1082       O  0.44226042  0.08144184  0.08706947    -0.95000
O1083       O  0.44861612  0.16902870  0.10187908    -0.90700
O1084       O  0.44373781  0.20942743  0.13402728    -0.83900
C1085       C  0.45591583  0.19479871  0.11738851     1.11300
O1086       O  0.32800658  0.19667688  0.07475466    -0.97000
Zr1087     Zr  0.35784646  0.20509184  0.10365483     1.88900
O1088       O  0.39587074  0.27548008  0.13948289    -0.73600
O1089       O  0.42252723  0.17824201  0.06143430    -0.52900
O1090       O  0.36931711  0.23734332  0.06729531    -0.97500
O1091       O  0.32201211  0.23814932  0.11551541    -0.54800
O1092       O  0.36854279  0.27803503  0.11191063    -0.74100
C1093       C  0.38248404  0.29597836  0.12590119     0.98200
O1094       O  0.43118353  0.23141653  0.17681649    -0.62900
O1095       O  0.33870581  0.09064125  0.19097155    -0.57700
O1096       O  0.39428433  0.20946595  0.18966447    -0.94400
O1097       O  0.35988998  0.17691922  0.19558276    -0.92900
O1098       O  0.38896079  0.03975377  0.18781889    -0.93200
O1099       O  0.43063816  0.07747639  0.18269208    -0.92000
C1100       C  0.37710946  0.19894736  0.20252123     1.17100
H1101       H  0.35418637  0.05082299  0.15331270     0.33000
H1102       H  0.43578486  0.13113542  0.13822744     0.43900
H1103       H  0.35818231  0.23007396  0.15137076     0.37400
H1104       H  0.36859499  0.14259736  0.07214364     0.33900
H1105       H  0.43896994  0.01161109  0.15278506     0.25700
H1106       H  0.43241665  0.16000517  0.05174244     0.31600
H1107       H  0.38528932  0.24724958  0.06971572     0.37500
H1108       H  0.39632241  0.01134710  0.18840010     0.32000
H1109       H  0.35227382  0.09085624  0.20113446     0.30800
H1110       H  0.30678377  0.17457565  0.18018293     0.32500
H1111       H  0.32543498  0.25293543  0.13015741     0.31500
H1112       H  0.43553542  0.10790241  0.18253903     0.35500
H1113       H  0.44346528  0.21004558  0.17867731     0.28200
H1114       H  0.33604881  0.01430246  0.07488447     0.32500
H1115       H  0.32434534  0.22606006  0.06967907     0.35300
H1116       H  0.32660383  0.10479199  0.20007830     0.27900
H1117       H  0.43859945  0.25623060  0.16918374     0.40800
H1118       H  0.45174009  0.08168681  0.10113338     0.30800
H1119       H  0.43603369  0.02488904  0.12710930     0.38500
H1120       H  0.31190901  0.21387141  0.11992691     0.30300
H1121       H  0.40813073  0.18096279  0.05262550     0.30400
H1122       H  0.32027971  0.05502487  0.07431209     0.30600
Zr1123     Zr  0.35709119  0.57841768  0.10462990     2.17500
O1124       O  0.32769782  0.54381613  0.08114597    -0.51700
O1125       O  0.36526762  0.50291815  0.11248950    -0.74900
O1126       O  0.36951837  0.56918655  0.06460207    -0.81700
O1127       O  0.31040683  0.61578346  0.14743730    -0.83500
O1128       O  0.40408733  0.60155780  0.05979927    -0.79100
O1129       O  0.31610858  0.58080177  0.11364087    -0.90700
O1130       O  0.39228735  0.49850665  0.14024993    -0.76700
O1131       O  0.39732202  0.57401639  0.11069789    -0.86200
O1132       O  0.36218382  0.57357630  0.14527687    -0.85900
O1133       O  0.37253178  0.64338446  0.08822618    -0.72600
O1134       O  0.34189518  0.64295102  0.12076167    -0.84700
Zr1135     Zr  0.40371355  0.69904775  0.15130106     2.26400
Zr1136     Zr  0.41290485  0.63905895  0.09513011     2.06300
Zr1137     Zr  0.34759493  0.63867883  0.16120581     2.10000
Zr1138     Zr  0.40241935  0.57048523  0.15125705     1.78800
O1139       O  0.31993035  0.69040114  0.17525333    -0.93600
O1140       O  0.43882235  0.53763328  0.14131409    -0.41400
O1141       O  0.38781296  0.63474210  0.16777640    -0.78000
O1142       O  0.41918593  0.63382435  0.13574301    -0.96700
O1143       O  0.39818041  0.70422688  0.11088476    -0.90000
O1144       O  0.36342651  0.70337669  0.14573483    -0.92800
C1145       C  0.37857522  0.48154675  0.12567716     1.00900
C1146       C  0.30317559  0.59609985  0.12951075     1.13900
C1147       C  0.38703183  0.57965891  0.05226950     1.04600
O1148       O  0.44458500  0.59535042  0.08190287    -0.95000
O1149       O  0.44947393  0.67074578  0.10532394    -0.90700
O1150       O  0.44337258  0.70804734  0.13826743    -0.83900
C1151       C  0.45627265  0.69436967  0.12200578     1.11300
O1152       O  0.32856154  0.70371718  0.07551670    -0.97000
Zr1153     Zr  0.35783082  0.70712649  0.10529850     1.88900
O1154       O  0.39531690  0.77446588  0.14359046    -0.73600
O1155       O  0.41894751  0.69263740  0.06534008    -0.52900
O1156       O  0.37212575  0.74100578  0.07039009    -0.97500
O1157       O  0.32182009  0.74097529  0.11594821    -0.54800
O1158       O  0.36760259  0.77873957  0.11658629    -0.74100
C1159       C  0.38180977  0.79575727  0.13057779     0.98200
O1160       O  0.43015030  0.72998681  0.17915345    -0.62900
O1161       O  0.33428931  0.58466462  0.18840154    -0.57700
O1162       O  0.39307095  0.70599227  0.19190118    -0.94400
O1163       O  0.35997018  0.66865897  0.19760485    -0.92900
O1164       O  0.39021354  0.53652766  0.18687501    -0.93200
O1165       O  0.43143211  0.57640855  0.18111211    -0.92000
C1166       C  0.37670941  0.69202453  0.20480338     1.17100
H1167       H  0.35432019  0.54886583  0.15153787     0.33000
H1168       H  0.43517392  0.63079841  0.13935412     0.43900
H1169       H  0.35722180  0.72790621  0.15361321     0.37400
H1170       H  0.36914972  0.64597643  0.07209410     0.33900
H1171       H  0.43849700  0.50945767  0.14907640     0.25700
H1172       H  0.43309867  0.68353659  0.05739014     0.31600
H1173       H  0.36564076  0.77017631  0.07055530     0.37500
H1174       H  0.38731633  0.56060017  0.19752696     0.32000
H1175       H  0.34683579  0.58216103  0.19969175     0.30800
H1176       H  0.31145248  0.67530358  0.18759824     0.32500
H1177       H  0.32252694  0.76990736  0.10904735     0.31500
H1178       H  0.43456062  0.60751458  0.18247307     0.35500
H1179       H  0.44259750  0.70896449  0.18108594     0.28200
H1180       H  0.33527563  0.51959379  0.07336682     0.32500
H1181       H  0.32623416  0.73360948  0.07045733     0.35300
H1182       H  0.32175591  0.59860840  0.19700015     0.27900
H1183       H  0.43741830  0.75528758  0.17186979     0.40800
H1184       H  0.44073810  0.56602608  0.08713235     0.30800
H1185       H  0.43751230  0.53067229  0.12479777     0.38500
H1186       H  0.32287510  0.74616410  0.13266800     0.30300
H1187       H  0.40659872  0.68726347  0.05405043     0.30400
H1188       H  0.32435279  0.56442277  0.06871654     0.30600
Zr1189     Zr  0.35290795  0.35136166  0.39867273     2.17500
O1190       O  0.32163971  0.38154083  0.42115007    -0.51700
O1191       O  0.35977068  0.42738923  0.39006385    -0.74900
O1192       O  0.36367688  0.36221545  0.43909866    -0.81700
O1193       O  0.30835012  0.30708288  0.35485364    -0.83500
O1194       O  0.39921178  0.33515371  0.44483693    -0.79100
O1195       O  0.31271864  0.34835314  0.38677276    -0.90700
O1196       O  0.38889367  0.43261485  0.36442825    -0.76700
O1197       O  0.39309427  0.36070417  0.39308201    -0.86200
O1198       O  0.35875765  0.35308934  0.35812090    -0.85900
O1199       O  0.36973722  0.28934896  0.41634035    -0.72600
O1200       O  0.33929682  0.28396412  0.38389704    -0.84700
Zr1201     Zr  0.40330800  0.23165891  0.35554110     2.26400
Zr1202     Zr  0.41008937  0.29874967  0.40984099     2.06300
Zr1203     Zr  0.34624315  0.28489474  0.34349060     2.10000
Zr1204     Zr  0.39891011  0.36092818  0.35262196     1.78800
O1205       O  0.31979093  0.22896375  0.33087968    -0.93600
O1206       O  0.43537008  0.39707039  0.35973673    -0.41400
O1207       O  0.38643918  0.29321275  0.33790293    -0.78000
O1208       O  0.41714495  0.30001608  0.36933436    -0.96700
O1209       O  0.39685590  0.23068845  0.39588146    -0.90000
O1210       O  0.36299158  0.22314618  0.36057009    -0.92800
C1211       C  0.37390768  0.44929715  0.37771859     1.00900
C1212       C  0.30043459  0.33022805  0.37115000     1.13900
C1213       C  0.38105001  0.35379380  0.45188677     1.04600
O1214       O  0.44046054  0.35163594  0.41548647    -0.95000
O1215       O  0.44646155  0.26551057  0.40286315    -0.90700
O1216       O  0.44150057  0.22162748  0.37216507    -0.83900
C1217       C  0.45367575  0.23794286  0.38837189     1.11300
O1218       O  0.32574586  0.22504827  0.42931377    -0.97000
Zr1219     Zr  0.35653396  0.22295257  0.40096126     1.88900
O1220       O  0.39428879  0.15588906  0.36321658    -0.73600
O1221       O  0.42173584  0.25438021  0.44204009    -0.52900
O1222       O  0.36774243  0.19585305  0.43845392    -0.97500
O1223       O  0.32165535  0.18566289  0.38889825    -0.54800
O1224       O  0.37003592  0.15182895  0.39369654    -0.74100
C1225       C  0.38253624  0.13479973  0.37822746     0.98200
O1226       O  0.43333087  0.20957500  0.32907220    -0.62900
O1227       O  0.33419202  0.33132913  0.31225681    -0.57700
O1228       O  0.39442468  0.22174515  0.31459292    -0.94400
O1229       O  0.36075248  0.25487791  0.30805014    -0.92900
O1230       O  0.38243347  0.39159935  0.31804087    -0.93200
O1231       O  0.42569462  0.35959775  0.32053132    -0.92000
C1232       C  0.37825540  0.23380825  0.30112375     1.17100
H1233       H  0.35044737  0.37643076  0.35132127     0.33000
H1234       H  0.43331378  0.30311050  0.36615774     0.43900
H1235       H  0.35729420  0.19739898  0.35328867     0.37400
H1236       H  0.36610986  0.28678706  0.43242863     0.33900
H1237       H  0.43381975  0.42561492  0.35256381     0.25700
H1238       H  0.43246766  0.27262527  0.45094340     0.31600
H1239       H  0.38365924  0.18588159  0.43636567     0.37500
H1240       H  0.39191824  0.41733482  0.31478862     0.32000
H1241       H  0.32114458  0.31599243  0.30505585     0.30800
H1242       H  0.31248138  0.24058578  0.31693108     0.32500
H1243       H  0.32591317  0.15521593  0.38728722     0.31500
H1244       H  0.42925216  0.32891560  0.31842056     0.35500
H1245       H  0.44586975  0.23104090  0.33026009     0.28200
H1246       H  0.32817501  0.40670560  0.42920360     0.32500
H1247       H  0.32216867  0.19479591  0.43306328     0.35300
H1248       H  0.32716253  0.35647153  0.31972521     0.27900
H1249       H  0.43965308  0.18247408  0.33499655     0.40800
H1250       H  0.43250703  0.37804680  0.42026674     0.30800
H1251       H  0.43537376  0.40293746  0.37642898     0.38500
H1252       H  0.31885125  0.19541832  0.37302190     0.30300
H1253       H  0.40794435  0.25180876  0.45187383     0.30400
H1254       H  0.31847214  0.36037964  0.43342332     0.30600
Zr1255     Zr  0.35649750  0.85446226  0.40159999     2.17500
O1256       O  0.32881278  0.89112778  0.42599911    -0.51700
O1257       O  0.36683134  0.92939720  0.39419810    -0.74900
O1258       O  0.36846283  0.85928297  0.44183101    -0.81700
O1259       O  0.30972394  0.82475363  0.35748863    -0.83500
O1260       O  0.40279533  0.82675367  0.44641450    -0.79100
O1261       O  0.31566150  0.85799063  0.39177998    -0.90700
O1262       O  0.39370527  0.93269563  0.36600457    -0.76700
O1263       O  0.39688384  0.85689489  0.39559461    -0.86200
O1264       O  0.36218508  0.85968013  0.36109239    -0.85900
O1265       O  0.37051916  0.78819362  0.41727011    -0.72600
O1266       O  0.33928379  0.79138669  0.38514863    -0.84700
Zr1267     Zr  0.40052911  0.73135245  0.35472953     2.26400
Zr1268     Zr  0.41108629  0.79088532  0.41059984     2.06300
Zr1269     Zr  0.34592620  0.79598352  0.34480542     2.10000
Zr1270     Zr  0.40250386  0.86030239  0.35511117     1.78800
O1271       O  0.31391414  0.75224215  0.33145500    -0.93600
O1272       O  0.43928540  0.89165725  0.36604327    -0.41400
O1273       O  0.38630299  0.79683040  0.33866433    -0.78000
O1274       O  0.41784224  0.79566892  0.37009016    -0.96700
O1275       O  0.39428344  0.72693868  0.39498479    -0.90000
O1276       O  0.36000916  0.73000443  0.35989461    -0.92800
C1277       C  0.38037376  0.95006409  0.38067560     1.00900
C1278       C  0.30272092  0.84501494  0.37526101     1.13900
C1279       C  0.38557122  0.84744004  0.45409782     1.04600
O1280       O  0.44348638  0.83690416  0.42055555    -0.95000
O1281       O  0.44643902  0.75493408  0.40101912    -0.90700
O1282       O  0.44028799  0.71981256  0.36733144    -0.83900
C1283       C  0.45313587  0.73160266  0.38420154     1.11300
O1284       O  0.32576696  0.73583274  0.43089061    -0.97000
Zr1285     Zr  0.35375702  0.72608265  0.40020144     1.88900
O1286       O  0.39089742  0.65626115  0.36370318    -0.73600
O1287       O  0.41730282  0.73852603  0.44082784    -0.52900
O1288       O  0.36518563  0.68761777  0.43461465    -0.97500
O1289       O  0.31672332  0.69647380  0.38865189    -0.54800
O1290       O  0.36184365  0.65350026  0.38955743    -0.74100
C1291       C  0.37633252  0.63563479  0.37625038     0.98200
O1292       O  0.42492617  0.70387161  0.32412930    -0.62900
O1293       O  0.33877641  0.85179349  0.31663891    -0.57700
O1294       O  0.38809060  0.72285230  0.31492356    -0.94400
O1295       O  0.35605095  0.76165491  0.30885929    -0.92900
O1296       O  0.39151952  0.89465079  0.31937897    -0.93200
O1297       O  0.43044805  0.85389899  0.32422281    -0.92000
C1298       C  0.37190829  0.73657442  0.30195267     1.17100
H1299       H  0.35505110  0.88497293  0.35496025     0.33000
H1300       H  0.43397430  0.79754149  0.36659404     0.43900
H1301       H  0.35320575  0.70595689  0.35190909     0.37400
H1302       H  0.36698820  0.78465354  0.43332977     0.33900
H1303       H  0.44090632  0.91751820  0.35634535     0.25700
H1304       H  0.42735853  0.75331337  0.45203148     0.31600
H1305       H  0.35518762  0.66185378  0.43511805     0.37500
H1306       H  0.40040443  0.92180031  0.31903653     0.32000
H1307       H  0.35162879  0.84968684  0.30559873     0.30800
H1308       H  0.30522821  0.77105648  0.32102039     0.32500
H1309       H  0.31541278  0.66878033  0.39681122     0.31500
H1310       H  0.43510596  0.82351149  0.32453137     0.35500
H1311       H  0.43826707  0.72362823  0.32330151     0.28200
H1312       H  0.33740480  0.91446882  0.43374712     0.32500
H1313       H  0.31980327  0.70688475  0.43459329     0.35300
H1314       H  0.32522385  0.84152253  0.30798928     0.27900
H1315       H  0.43109818  0.67652488  0.32988023     0.40800
H1316       H  0.43706408  0.86606414  0.42163981     0.30800
H1317       H  0.43682667  0.90298097  0.38172174     0.38500
H1318       H  0.31853071  0.68844410  0.37232026     0.30300
H1319       H  0.40233159  0.73595402  0.44874287     0.30400
H1320       H  0.32478413  0.87059958  0.43834078     0.30600
Zr1321     Zr  0.65045558  0.35750353  0.10476795     2.17500
O1322       O  0.67726664  0.39940478  0.08158610    -0.51700
O1323       O  0.64189616  0.43236114  0.11436842    -0.74900
O1324       O  0.64012500  0.36409613  0.06426684    -0.81700
O1325       O  0.69598752  0.32218869  0.14849935    -0.83500
O1326       O  0.60511686  0.33405744  0.05841183    -0.79100
O1327       O  0.69151856  0.35436030  0.11384246    -0.90700
O1328       O  0.61276180  0.43514551  0.14005811    -0.76700
O1329       O  0.61003260  0.36116236  0.10996871    -0.86200
O1330       O  0.64414354  0.36062010  0.14521346    -0.85900
O1331       O  0.63561087  0.29245945  0.08762136    -0.72600
O1332       O  0.66581612  0.29296007  0.12036518    -0.84700
Zr1333     Zr  0.60339871  0.23368532  0.14909372     2.26400
Zr1334     Zr  0.59505936  0.29647871  0.09351454     2.06300
Zr1335     Zr  0.65890703  0.29552370  0.16067090     2.10000
Zr1336     Zr  0.60365413  0.36244078  0.15039695     1.78800
O1337       O  0.68845563  0.24555106  0.17228963    -0.93600
O1338       O  0.56706910  0.39321892  0.13947211    -0.41400
O1339       O  0.61851279  0.29797172  0.16618584    -0.78000
O1340       O  0.58738619  0.29890821  0.13404297    -0.96700
O1341       O  0.61005538  0.23111547  0.10874198    -0.90000
O1342       O  0.64389982  0.23065912  0.14442354    -0.92800
C1343       C  0.62759546  0.45300158  0.12694453     1.00900
C1344       C  0.70392619  0.34090560  0.13054972     1.13900
C1345       C  0.62304555  0.35414552  0.05141157     1.04600
O1346       O  0.56354856  0.34458973  0.08521354    -0.95000
O1347       O  0.55990737  0.25771264  0.10108143    -0.90700
O1348       O  0.56453266  0.22124579  0.13450867    -0.83900
C1349       C  0.55259371  0.23320375  0.11717789     1.11300
O1350       O  0.68073427  0.23420181  0.07522601    -0.97000
Zr1351     Zr  0.65055333  0.22878040  0.10409790     1.88900
O1352       O  0.61294097  0.15880082  0.14071967    -0.73600
O1353       O  0.58663187  0.25041310  0.06077774    -0.52900
O1354       O  0.63977201  0.19594876  0.06767381    -0.97500
O1355       O  0.68674904  0.19841759  0.11667161    -0.54800
O1356       O  0.64028726  0.15608221  0.11307800    -0.74100
C1357       C  0.62651715  0.13826773  0.12729816     0.98200
O1358       O  0.57789039  0.20365788  0.17826883    -0.62900
O1359       O  0.66966067  0.34854780  0.18949407    -0.57700
O1360       O  0.61281640  0.22719040  0.18995572    -0.94400
O1361       O  0.64582204  0.26401607  0.19653392    -0.92900
O1362       O  0.61495805  0.39691227  0.18624191    -0.93200
O1363       O  0.57517111  0.35578693  0.18082328    -0.92000
C1364       C  0.62897098  0.24049607  0.20327555     1.17100
H1365       H  0.65174411  0.38523478  0.15187992     0.33000
H1366       H  0.57116031  0.30047664  0.13709392     0.43900
H1367       H  0.65022188  0.20605772  0.15208105     0.37400
H1368       H  0.63944340  0.28943708  0.07160286     0.33900
H1369       H  0.56498798  0.41776439  0.15001819     0.25700
H1370       H  0.57657561  0.26762597  0.05079098     0.31600
H1371       H  0.62419714  0.18408722  0.07027111     0.37500
H1372       H  0.62786552  0.41628526  0.18222359     0.32000
H1373       H  0.65658352  0.34915358  0.20033122     0.30800
H1374       H  0.69858083  0.26214722  0.18267818     0.32500
H1375       H  0.68251308  0.17398021  0.12665856     0.31500
H1376       H  0.57588991  0.32542713  0.18560782     0.35500
H1377       H  0.56500605  0.22392715  0.17955633     0.28200
H1378       H  0.66828543  0.42241333  0.07430349     0.32500
H1379       H  0.68506766  0.20434981  0.07163908     0.35300
H1380       H  0.68221004  0.33514425  0.19823742     0.27900
H1381       H  0.57118359  0.17734269  0.17149937     0.40800
H1382       H  0.57081864  0.37309135  0.08315446     0.30800
H1383       H  0.56995165  0.40656921  0.12433023     0.38500
H1384       H  0.69331179  0.22003365  0.12727356     0.30300
H1385       H  0.60126063  0.24850014  0.05222479     0.30400
H1386       H  0.68215583  0.38058338  0.06882333     0.30600
Zr1387     Zr  0.65260914  0.85617912  0.10337282     2.17500
O1388       O  0.68200778  0.89117361  0.07994790    -0.51700
O1389       O  0.64534081  0.93179701  0.11324758    -0.74900
O1390       O  0.64009149  0.86677064  0.06366561    -0.81700
O1391       O  0.69961000  0.81067090  0.14318375    -0.83500
O1392       O  0.60414734  0.83946090  0.05929427    -0.79100
O1393       O  0.69383433  0.85061800  0.11112297    -0.90700
O1394       O  0.61826853  0.93572603  0.14114684    -0.76700
O1395       O  0.61285969  0.86406333  0.11142471    -0.86200
O1396       O  0.64909864  0.85787761  0.14414872    -0.85900
O1397       O  0.63456129  0.79363757  0.08652653    -0.72600
O1398       O  0.66666832  0.78897367  0.11715316    -0.84700
Zr1399     Zr  0.60443566  0.73582706  0.14938389     2.26400
Zr1400     Zr  0.59465454  0.80235142  0.09495529     2.06300
Zr1401     Zr  0.66258199  0.79028666  0.15780200     2.10000
Zr1402     Zr  0.60930333  0.86365341  0.15223014     1.78800
O1403       O  0.68920060  0.73414925  0.16834320    -0.93600
O1404       O  0.57215375  0.89778561  0.14846268    -0.41400
O1405       O  0.62286793  0.79713136  0.16618522    -0.78000
O1406       O  0.58985573  0.80339438  0.13592317    -0.96700
O1407       O  0.60835667  0.73466762  0.10861293    -0.90000
O1408       O  0.64432590  0.72816013  0.14196367    -0.92800
C1409       C  0.63204901  0.95296362  0.12675242     1.00900
C1410       C  0.70679126  0.83233056  0.12597265     1.13900
C1411       C  0.62218200  0.85843715  0.05156811     1.04600
O1412       O  0.56567886  0.85732678  0.09083066    -0.95000
O1413       O  0.55859222  0.76737659  0.10438360    -0.90700
O1414       O  0.56415994  0.73131578  0.13777824    -0.83900
C1415       C  0.55147678  0.74443129  0.12123884     1.11300
O1416       O  0.67556669  0.73389660  0.06969989    -0.97000
Zr1417     Zr  0.64827175  0.72741886  0.10127760     1.88900
O1418       O  0.61164690  0.66013407  0.14044988    -0.73600
O1419       O  0.58174926  0.75936485  0.06244284    -0.52900
O1420       O  0.63305337  0.69394863  0.06665565    -0.97500
O1421       O  0.68446588  0.69235701  0.10967888    -0.54800
O1422       O  0.63792967  0.65550486  0.11187410    -0.74100
C1423       C  0.62430352  0.63865537  0.12656253     0.98200
O1424       O  0.58037223  0.69888948  0.17753325    -0.62900
O1425       O  0.67925848  0.83947502  0.18587553    -0.57700
O1426       O  0.61492494  0.73400579  0.19030856    -0.94400
O1427       O  0.65061430  0.76162183  0.19443372    -0.92900
O1428       O  0.62786424  0.89379252  0.18604948    -0.93200
O1429       O  0.58408907  0.85818598  0.18544141    -0.92000
C1430       C  0.63251117  0.74404449  0.20266352     1.17100
H1431       H  0.65769460  0.88165456  0.15045784     0.33000
H1432       H  0.57402877  0.80725341  0.14013176     0.43900
H1433       H  0.65023959  0.70261556  0.14903424     0.37400
H1434       H  0.63731803  0.79112352  0.07026547     0.33900
H1435       H  0.57408553  0.92626056  0.15572387     0.25700
H1436       H  0.57203855  0.77871305  0.05327695     0.31600
H1437       H  0.61801251  0.68178981  0.07126285     0.37500
H1438       H  0.61971550  0.92089630  0.18903156     0.32000
H1439       H  0.69283138  0.82438733  0.19183533     0.30800
H1440       H  0.69757157  0.74558510  0.18180384     0.32500
H1441       H  0.68307016  0.66350382  0.10274104     0.31500
H1442       H  0.58265991  0.82705395  0.18835685     0.35500
H1443       H  0.56877894  0.72003833  0.18236471     0.28200
H1444       H  0.67525075  0.91842261  0.07480125     0.32500
H1445       H  0.67868891  0.70424258  0.06464420     0.35300
H1446       H  0.68583215  0.86354002  0.17692594     0.27900
H1447       H  0.57164692  0.67680528  0.16896313     0.40800
H1448       H  0.57433705  0.88448518  0.08890150     0.30800
H1449       H  0.57069637  0.90396128  0.13188490     0.38500
H1450       H  0.68425545  0.68708879  0.12641564     0.30300
H1451       H  0.59562601  0.75506467  0.05294141     0.30400
H1452       H  0.68341037  0.87367267  0.06583605     0.30600
Zr1453     Zr  0.64877886  0.08049127  0.39854456     2.17500
O1454       O  0.67906037  0.04031044  0.41723343    -0.51700
O1455       O  0.63967598  0.00549160  0.38952121    -0.74900
O1456       O  0.63960684  0.07044821  0.43967953    -0.81700
O1457       O  0.69294896  0.12181385  0.35283640    -0.83500
O1458       O  0.60501415  0.10035688  0.44679357    -0.79100
O1459       O  0.68935996  0.08694741  0.38692147    -0.90700
O1460       O  0.61011847  0.00168927  0.36437377    -0.76700
O1461       O  0.60818856  0.07475727  0.39487366    -0.86200
O1462       O  0.64074493  0.07718617  0.35835766    -0.85900
O1463       O  0.63412532  0.14424445  0.41666337    -0.72600
O1464       O  0.66307893  0.14602580  0.38230187    -0.84700
Zr1465     Zr  0.59923625  0.20176737  0.35627465     2.26400
Zr1466     Zr  0.59343407  0.13803943  0.41240783     2.06300
Zr1467     Zr  0.65461479  0.14298094  0.34230667     2.10000
Zr1468     Zr  0.60014327  0.07368574  0.35477102     1.78800
O1469       O  0.68187414  0.19430661  0.32629291    -0.93600
O1470       O  0.56435216  0.03903241  0.36626594    -0.41400
O1471       O  0.61407529  0.13867354  0.33828207    -0.78000
O1472       O  0.58440896  0.13579602  0.37222615    -0.96700
O1473       O  0.60728467  0.20418701  0.39642922    -0.90000
O1474       O  0.63975695  0.20652621  0.35938408    -0.92800
C1475       C  0.62510172  0.98450603  0.37727481     1.00900
C1476       C  0.70136556  0.10255018  0.37025011     1.13900
C1477       C  0.62288959  0.08001338  0.45322050     1.04600
O1478       O  0.56341435  0.08714480  0.42319712    -0.95000
O1479       O  0.55720670  0.17273271  0.40609455    -0.90700
O1480       O  0.56174860  0.21340698  0.37401697    -0.83900
C1481       C  0.54987000  0.19888843  0.39093510     1.11300
O1482       O  0.67764588  0.20294459  0.42843780    -0.97000
Zr1483     Zr  0.64785831  0.20885996  0.39938916     1.88900
O1484       O  0.60908740  0.27732394  0.36353944    -0.73600
O1485       O  0.58654341  0.18514375  0.44500790    -0.52900
O1486       O  0.63802237  0.24607717  0.43479657    -0.97500
O1487       O  0.68325364  0.24193365  0.38546215    -0.54800
O1488       O  0.63813199  0.28047838  0.38898598    -0.74100
C1489       C  0.62381868  0.29837218  0.37561312     0.98200
O1490       O  0.56890429  0.22287550  0.33006241    -0.62900
O1491       O  0.66339478  0.08898188  0.31341372    -0.57700
O1492       O  0.60804538  0.21203953  0.31501213    -0.94400
O1493       O  0.64060862  0.17548657  0.30751967    -0.92900
O1494       O  0.61122368  0.04140651  0.31838293    -0.93200
O1495       O  0.56993436  0.08204846  0.32641019    -0.92000
C1496       C  0.62386089  0.19898044  0.30119160     1.17100
H1497       H  0.64804767  0.05286994  0.35128644     0.33000
H1498       H  0.56809949  0.13339748  0.36980819     0.43900
H1499       H  0.64555844  0.23138554  0.35135123     0.37400
H1500       H  0.63849215  0.14684983  0.43254711     0.33900
H1501       H  0.56305859  0.01345020  0.35628487     0.25700
H1502       H  0.57521972  0.16950914  0.45459408     0.31600
H1503       H  0.62121227  0.24971229  0.43416056     0.37500
H1504       H  0.60437212  0.01230062  0.31867878     0.32000
H1505       H  0.65475105  0.09749946  0.29958430     0.30800
H1506       H  0.69033861  0.17807589  0.31444540     0.32500
H1507       H  0.68394135  0.27037143  0.39295990     0.31500
H1508       H  0.57090506  0.11252587  0.32182382     0.35500
H1509       H  0.55651122  0.20121198  0.33168772     0.28200
H1510       H  0.67124275  0.01876297  0.42695062     0.32500
H1511       H  0.68304965  0.23257608  0.43139027     0.35300
H1512       H  0.67964541  0.09426629  0.30933454     0.27900
H1513       H  0.56250198  0.24993233  0.33602456     0.40800
H1514       H  0.55229496  0.08777961  0.41040372     0.30800
H1515       H  0.56742360  0.02736420  0.38173294     0.38500
H1516       H  0.68063304  0.24834034  0.36906074     0.30300
H1517       H  0.60089069  0.18457954  0.45402863     0.30400
H1518       H  0.68619698  0.06062052  0.42820217     0.30600
Zr1519     Zr  0.65084692  0.58334118  0.39782193     2.17500
O1520       O  0.67950999  0.54977108  0.42219187    -0.51700
O1521       O  0.64384990  0.50758112  0.38799963    -0.74900
O1522       O  0.63880332  0.57506873  0.43838587    -0.81700
O1523       O  0.69696627  0.62499576  0.35493719    -0.83500
O1524       O  0.60395140  0.60522722  0.44388491    -0.79100
O1525       O  0.69189379  0.58755979  0.38806187    -0.90700
O1526       O  0.61553299  0.50288476  0.36183280    -0.76700
O1527       O  0.61060306  0.57641205  0.39182194    -0.86200
O1528       O  0.64537099  0.57921538  0.35713832    -0.85900
O1529       O  0.63450303  0.64707569  0.41444964    -0.72600
O1530       O  0.66567013  0.64896744  0.38185258    -0.84700
Zr1531     Zr  0.60250860  0.70235624  0.35271561     2.26400
Zr1532     Zr  0.59403561  0.63962271  0.40793688     2.06300
Zr1533     Zr  0.65932769  0.64541742  0.34150089     2.10000
Zr1534     Zr  0.60510610  0.57417864  0.35127012     1.78800
O1535       O  0.68779801  0.69434523  0.32550760    -0.93600
O1536       O  0.56948923  0.53766136  0.36160643    -0.41400
O1537       O  0.61900815  0.63983929  0.33550526    -0.78000
O1538       O  0.58730947  0.63584483  0.36733752    -0.96700
O1539       O  0.60873704  0.70597261  0.39301356    -0.90000
O1540       O  0.64297676  0.70867865  0.35765654    -0.92800
C1541       C  0.63018372  0.48571475  0.37511989     1.00900
C1542       C  0.70463082  0.60439685  0.37229362     1.13900
C1543       C  0.62157940  0.58521451  0.45115793     1.04600
O1544       O  0.56390478  0.58737138  0.41603094    -0.95000
O1545       O  0.55751941  0.67198786  0.39917370    -0.90700
O1546       O  0.56287743  0.71016358  0.36639527    -0.83900
C1547       C  0.55035141  0.69627128  0.38303770     1.11300
O1548       O  0.68089057  0.70251252  0.42471641    -0.97000
Zr1549     Zr  0.64920799  0.71152029  0.39798111     1.88900
O1550       O  0.61061032  0.77775392  0.36120263    -0.73600
O1551       O  0.58302430  0.68839900  0.43861103    -0.52900
O1552       O  0.63827572  0.74201364  0.43485456    -0.97500
O1553       O  0.68368592  0.75136705  0.38694480    -0.54800
O1554       O  0.63729890  0.78287426  0.38925449    -0.74100
C1555       C  0.62342492  0.79943455  0.37493146     0.98200
O1556       O  0.57667777  0.73281578  0.32430901    -0.62900
O1557       O  0.66916435  0.59104076  0.31318563    -0.57700
O1558       O  0.61261664  0.70935813  0.31220571    -0.94400
O1559       O  0.64770716  0.68016413  0.30628677    -0.92900
O1560       O  0.61818927  0.54382883  0.31501056    -0.93200
O1561       O  0.57695138  0.57693304  0.32053851    -0.92000
C1562       C  0.62982892  0.69992140  0.29944644     1.17100
H1563       H  0.65335550  0.55511587  0.35062913     0.33000
H1564       H  0.57124498  0.63242950  0.36386956     0.43900
H1565       H  0.64891361  0.73380868  0.34995820     0.37400
H1566       H  0.63801004  0.65032503  0.43051946     0.33900
H1567       H  0.56947084  0.51091723  0.35246428     0.25700
H1568       H  0.57038313  0.67340929  0.44673513     0.31600
H1569       H  0.62188791  0.74918731  0.43314948     0.37500
H1570       H  0.62585018  0.51674107  0.31905191     0.32000
H1571       H  0.66149118  0.60007667  0.29888060     0.30800
H1572       H  0.69512236  0.67806675  0.31292618     0.32500
H1573       H  0.68370693  0.77731701  0.39672238     0.31500
H1574       H  0.57468572  0.60787844  0.31779212     0.35500
H1575       H  0.56326012  0.71325203  0.32343266     0.28200
H1576       H  0.67169928  0.52556598  0.42997831     0.32500
H1577       H  0.68344642  0.73092112  0.43186312     0.35300
H1578       H  0.68569295  0.59563281  0.31012512     0.27900
H1579       H  0.57081380  0.75954997  0.33118887     0.40800
H1580       H  0.57201458  0.56024631  0.41898762     0.30800
H1581       H  0.57180524  0.52803720  0.37760511     0.38500
H1582       H  0.68072761  0.76218866  0.37128950     0.30300
H1583       H  0.59595799  0.68810539  0.44956466     0.30400
H1584       H  0.68283543  0.57076185  0.43452832     0.30600
Zr1585     Zr  0.85254849  0.10843770  0.39805343     2.17500
O1586       O  0.82250344  0.14911225  0.41710494    -0.51700
O1587       O  0.86263685  0.18399234  0.39057754    -0.74900
O1588       O  0.86056014  0.11639187  0.43953260    -0.81700
O1589       O  0.80869145  0.06201719  0.35417081    -0.83500
O1590       O  0.89600821  0.08984373  0.44622800    -0.79100
O1591       O  0.81203035  0.10289237  0.38630788    -0.90700
O1592       O  0.89249164  0.18830663  0.36569036    -0.76700
O1593       O  0.89294443  0.11653781  0.39361733    -0.86200
O1594       O  0.86005624  0.11075626  0.35761152    -0.85900
O1595       O  0.86816753  0.04546060  0.41600985    -0.72600
O1596       O  0.83918831  0.04143933  0.38236645    -0.84700
Zr1597     Zr  0.90432439  0.98908323  0.35618393     2.26400
Zr1598     Zr  0.90862717  0.05451110  0.41145270     2.06300
Zr1599     Zr  0.84722839  0.04332075  0.34228266     2.10000
Zr1600     Zr  0.90054712  0.11681014  0.35332858     1.78800
O1601       O  0.82218974  0.98668141  0.32784834    -0.93600
O1602       O  0.93855148  0.14730664  0.35996157    -0.41400
O1603       O  0.88775052  0.05029466  0.33784619    -0.78000
O1604       O  0.91771573  0.05660155  0.37121507    -0.96700
O1605       O  0.89609065  0.98688509  0.39622081    -0.90000
O1606       O  0.86374428  0.98145076  0.35946900    -0.92800
C1607       C  0.87764377  0.20531591  0.37892688     1.00900
C1608       C  0.80007708  0.08404920  0.37060478     1.13900
C1609       C  0.87756431  0.10818309  0.45286724     1.04600
O1610       O  0.93686146  0.10967438  0.42079033    -0.95000
O1611       O  0.94568671  0.02321164  0.40588735    -0.90700
O1612       O  0.94300087  0.98411974  0.37304961    -0.83900
C1613       C  0.95428627  0.99936848  0.39031084     1.11300
O1614       O  0.82467546  0.98592830  0.42743151    -0.97000
Zr1615     Zr  0.85556518  0.97961736  0.39942800     1.88900
O1616       O  0.89607463  0.91321914  0.36408972    -0.73600
O1617       O  0.91719250  0.00765554  0.44364664    -0.52900
O1618       O  0.86688581  0.94616713  0.43537357    -0.97500
O1619       O  0.82066214  0.94278116  0.38719097    -0.54800
O1620       O  0.86682553  0.90820233  0.38966101    -0.74100
C1621       C  0.88178576  0.89156329  0.37641545     0.98200
O1622       O  0.93324688  0.96454256  0.32898618    -0.62900
O1623       O  0.83403430  0.09313216  0.31307241    -0.57700
O1624       O  0.89581355  0.97882691  0.31530432    -0.94400
O1625       O  0.86247101  0.01280825  0.30716676    -0.92900
O1626       O  0.88653433  0.15115190  0.31868303    -0.93200
O1627       O  0.92728529  0.11345963  0.32122627    -0.92000
C1628       C  0.88006619  0.99093688  0.30135438     1.17100
H1629       H  0.85230064  0.13454378  0.35058909     0.33000
H1630       H  0.93392474  0.06047069  0.36864963     0.43900
H1631       H  0.85843937  0.95591353  0.35169965     0.37400
H1632       H  0.86390257  0.04205618  0.43186822     0.33900
H1633       H  0.93829913  0.17572560  0.35246122     0.25700
H1634       H  0.92700206  0.02514143  0.45393064     0.31600
H1635       H  0.88277953  0.93647514  0.43276537     0.37500
H1636       H  0.88033226  0.12736736  0.30925381     0.32000
H1637       H  0.82318548  0.07620424  0.30360092     0.30800
H1638       H  0.81316017  0.00031511  0.31554747     0.32500
H1639       H  0.82036940  0.91564380  0.39594934     0.31500
H1640       H  0.93459037  0.08511619  0.32268264     0.35500
H1641       H  0.94509333  0.98743916  0.32856980     0.28200
H1642       H  0.83043396  0.16973105  0.42730521     0.32500
H1643       H  0.82240531  0.95688163  0.43386883     0.35300
H1644       H  0.82424828  0.11384939  0.32130170     0.27900
H1645       H  0.94075136  0.93978470  0.33630986     0.40800
H1646       H  0.92789981  0.13557797  0.42441871     0.30800
H1647       H  0.93891208  0.15376481  0.37658790     0.38500
H1648       H  0.82352763  0.93390979  0.37113987     0.30300
H1649       H  0.90251138  0.00448636  0.45204337     0.30400
H1650       H  0.81489508  0.12865520  0.42767607     0.30600
Zr1651     Zr  0.85546766  0.60954533  0.39978699     2.17500
O1652       O  0.82377978  0.64509240  0.41902626    -0.51700
O1653       O  0.86414520  0.68478318  0.39018562    -0.74900
O1654       O  0.86520601  0.62244132  0.44051821    -0.81700
O1655       O  0.81075482  0.56303786  0.35680684    -0.83500
O1656       O  0.90038071  0.59470455  0.44699785    -0.79100
O1657       O  0.81497882  0.60304386  0.38919136    -0.90700
O1658       O  0.89328945  0.68858533  0.36447113    -0.76700
O1659       O  0.89571481  0.61732143  0.39452772    -0.86200
O1660       O  0.86188838  0.61061339  0.35922872    -0.85900
O1661       O  0.87128602  0.54746757  0.41833977    -0.72600
O1662       O  0.84193683  0.54193219  0.38518395    -0.84700
Zr1663     Zr  0.90541498  0.48817001  0.35801767     2.26400
Zr1664     Zr  0.91170163  0.55576838  0.41259698     2.06300
Zr1665     Zr  0.84876367  0.54275906  0.34483337     2.10000
Zr1666     Zr  0.90227561  0.61631437  0.35410906     1.78800
O1667       O  0.82194982  0.48793876  0.33163290    -0.93600
O1668       O  0.93891503  0.65025345  0.36306274    -0.41400
O1669       O  0.88908464  0.54925493  0.33948931    -0.78000
O1670       O  0.91947002  0.55631043  0.37202362    -0.96700
O1671       O  0.89878709  0.48735754  0.39842624    -0.90000
O1672       O  0.86500496  0.48083875  0.36238489    -0.92800
C1673       C  0.87858858  0.70590173  0.37774613     1.00900
C1674       C  0.80273882  0.58465774  0.37364753     1.13900
C1675       C  0.88230018  0.61430253  0.45376545     1.04600
O1676       O  0.94153324  0.60671315  0.42363790    -0.95000
O1677       O  0.94876360  0.52555550  0.40488782    -0.90700
O1678       O  0.94426962  0.48380538  0.37314845    -0.83900
C1679       C  0.95628089  0.50003364  0.38946358     1.11300
O1680       O  0.82865728  0.48398515  0.43199870    -0.97000
Zr1681     Zr  0.85840263  0.48062173  0.40274084     1.88900
O1682       O  0.89730896  0.41237080  0.36653792    -0.73600
O1683       O  0.91987728  0.50734695  0.44413640    -0.52900
O1684       O  0.87113492  0.45115345  0.43915467    -0.97500
O1685       O  0.82277144  0.44313950  0.39353990    -0.54800
O1686       O  0.86883340  0.40850072  0.39292316    -0.74100
C1687       C  0.88321893  0.39115722  0.37929947     0.98200
O1688       O  0.93298409  0.45783662  0.33105506    -0.62900
O1689       O  0.83593575  0.59340742  0.31594276    -0.57700
O1690       O  0.89674319  0.47939306  0.31716401    -0.94400
O1691       O  0.86317462  0.51283484  0.30923513    -0.92900
O1692       O  0.88931797  0.64683149  0.31800642    -0.93200
O1693       O  0.93053615  0.60987383  0.32351157    -0.92000
C1694       C  0.88078479  0.49106412  0.30339288     1.17100
H1695       H  0.85395405  0.63408536  0.35209101     0.33000
H1696       H  0.93556289  0.56022690  0.36880816     0.43900
H1697       H  0.85930981  0.45515338  0.35503207     0.37400
H1698       H  0.86737845  0.54575011  0.43439467     0.33900
H1699       H  0.93989433  0.67532223  0.35271545     0.25700
H1700       H  0.93046824  0.52372089  0.45416211     0.31600
H1701       H  0.88474729  0.43388141  0.43529169     0.37500
H1702       H  0.89677848  0.67538690  0.31723128     0.32000
H1703       H  0.84996235  0.60122391  0.30728401     0.30800
H1704       H  0.81278305  0.50214187  0.31962282     0.32500
H1705       H  0.82297389  0.41679371  0.40297215     0.31500
H1706       H  0.93734517  0.58128466  0.32578511     0.35500
H1707       H  0.94567858  0.47897107  0.32980357     0.28200
H1708       H  0.83062600  0.66982656  0.42717497     0.32500
H1709       H  0.82350054  0.51407760  0.43169430     0.35300
H1710       H  0.82679227  0.57597757  0.30504612     0.27900
H1711       H  0.93964462  0.43268796  0.33880133     0.40800
H1712       H  0.94928349  0.61446878  0.40908520     0.30800
H1713       H  0.93672726  0.66281965  0.37850396     0.38500
H1714       H  0.82474934  0.43284877  0.37759361     0.30300
H1715       H  0.90540390  0.50567778  0.45298032     0.30400
H1716       H  0.81875867  0.62512424  0.43126404     0.30600
Zr1717     Zr  0.85628506  0.32980306  0.10833562     2.17500
O1718       O  0.82995505  0.28339824  0.08707720    -0.51700
O1719       O  0.86561955  0.25577908  0.11888547    -0.74900
O1720       O  0.86655967  0.32456821  0.06734969    -0.81700
O1721       O  0.80962721  0.36842687  0.15079678    -0.83500
O1722       O  0.90208511  0.35349937  0.06245260    -0.79100
O1723       O  0.81521655  0.33306623  0.11705464    -0.90700
O1724       O  0.89362968  0.25488696  0.14575372    -0.76700
O1725       O  0.89666807  0.32790103  0.11385408    -0.86200
O1726       O  0.86209085  0.32885648  0.14898591    -0.85900
O1727       O  0.87031818  0.39528534  0.09100707    -0.72600
O1728       O  0.84027113  0.39414539  0.12365925    -0.84700
Zr1729     Zr  0.90163540  0.45696747  0.15232017     2.26400
Zr1730     Zr  0.91084654  0.39308544  0.09720981     2.06300
Zr1731     Zr  0.84653034  0.39411577  0.16401313     2.10000
Zr1732     Zr  0.90250453  0.32822702  0.15439206     1.78800
O1733       O  0.81879535  0.44863910  0.17435844    -0.93600
O1734       O  0.93951988  0.29841328  0.14378386    -0.41400
O1735       O  0.88691334  0.39260309  0.16973729    -0.78000
O1736       O  0.91803730  0.39155747  0.13769093    -0.96700
O1737       O  0.89503180  0.45819775  0.11199631    -0.90000
O1738       O  0.86115673  0.45900040  0.14755221    -0.92800
C1739       C  0.87942135  0.23620494  0.13241486     1.00900
C1740       C  0.80237615  0.34802025  0.13310328     1.13900
C1741       C  0.88408699  0.33449218  0.05487548     1.04600
O1742       O  0.94354728  0.34784354  0.08879818    -0.95000
O1743       O  0.94590699  0.43175758  0.10524300    -0.90700
O1744       O  0.94175113  0.46341596  0.14024553    -0.83900
C1745       C  0.95358808  0.45264689  0.12255565     1.11300
O1746       O  0.82503046  0.45384536  0.07773274    -0.97000
Zr1747     Zr  0.85450935  0.45866761  0.10722339     1.88900
O1748       O  0.89174144  0.53106677  0.14191505    -0.73600
O1749       O  0.91808944  0.44091454  0.06497344    -0.52900
O1750       O  0.86651906  0.49250101  0.07143946    -0.97500
O1751       O  0.81683678  0.48375412  0.11903443    -0.54800
O1752       O  0.86238950  0.53191955  0.11658859    -0.74100
C1753       C  0.87707950  0.55072041  0.12931298     0.98200
O1754       O  0.92388349  0.50242167  0.17828471    -0.62900
O1755       O  0.83170856  0.34569758  0.19337236    -0.57700
O1756       O  0.89370583  0.45751002  0.19372690    -0.94400
O1757       O  0.86005873  0.42287229  0.20039541    -0.92900
O1758       O  0.89214807  0.29553297  0.19088265    -0.93200
O1759       O  0.93135075  0.33594826  0.18427316    -0.92000
C1760       C  0.87774984  0.44391305  0.20727493     1.17100
H1761       H  0.85479035  0.30410713  0.15581987     0.33000
H1762       H  0.93410622  0.38892595  0.14096357     0.43900
H1763       H  0.85473028  0.48377633  0.15501325     0.37400
H1764       H  0.86664043  0.39821006  0.07497150     0.33900
H1765       H  0.94149685  0.27351928  0.15407026     0.25700
H1766       H  0.92907646  0.42537353  0.05511538     0.31600
H1767       H  0.87911816  0.51237031  0.07571777     0.37500
H1768       H  0.87621390  0.30464813  0.19377490     0.32000
H1769       H  0.81638949  0.35702764  0.19723399     0.30800
H1770       H  0.81358063  0.44070975  0.18996990     0.32500
H1771       H  0.80903398  0.45813861  0.12540578     0.31500
H1772       H  0.93497092  0.36696203  0.18462896     0.35500
H1773       H  0.93704183  0.48492219  0.18322173     0.28200
H1774       H  0.83959219  0.26107863  0.07994995     0.32500
H1775       H  0.82118850  0.48381440  0.07390613     0.35300
H1776       H  0.82844114  0.31834748  0.18539426     0.27900
H1777       H  0.93067531  0.52523917  0.16857011     0.40800
H1778       H  0.93727367  0.31829862  0.08860053     0.30800
H1779       H  0.93707629  0.28558087  0.12843884     0.38500
H1780       H  0.81968640  0.50221417  0.13254780     0.30300
H1781       H  0.90362651  0.44076308  0.05613343     0.30400
H1782       H  0.82439676  0.30077668  0.07405998     0.30600
Zr1783     Zr  0.85808609  0.83214285  0.10541043     2.17500
O1784       O  0.83035869  0.79000089  0.08340564    -0.51700
O1785       O  0.86694986  0.75713793  0.11432732    -0.74900
O1786       O  0.86879146  0.82621577  0.06465499    -0.81700
O1787       O  0.81173725  0.87177047  0.14765868    -0.83500
O1788       O  0.90355514  0.85787983  0.05935498    -0.79100
O1789       O  0.81720160  0.83510143  0.11435658    -0.90700
O1790       O  0.89630311  0.75404763  0.13962871    -0.76700
O1791       O  0.89844083  0.82913052  0.11062198    -0.86200
O1792       O  0.86400684  0.82813712  0.14592138    -0.85900
O1793       O  0.87241477  0.89787183  0.08874676    -0.72600
O1794       O  0.84275976  0.89661844  0.12168428    -0.84700
Zr1795     Zr  0.90449723  0.95573651  0.15077974     2.26400
Zr1796     Zr  0.91286662  0.89468614  0.09470230     2.06300
Zr1797     Zr  0.84909421  0.89295268  0.16202823     2.10000
Zr1798     Zr  0.90440416  0.82674461  0.15107201     1.78800
O1799       O  0.82248029  0.94425320  0.17844296    -0.93600
O1800       O  0.94132435  0.79558964  0.14140176    -0.41400
O1801       O  0.88951293  0.89086901  0.16722064    -0.78000
O1802       O  0.92038278  0.89079578  0.13514667    -0.96700
O1803       O  0.89797104  0.95952227  0.11051419    -0.90000
O1804       O  0.86396644  0.95850222  0.14616820    -0.92800
C1805       C  0.88159832  0.73636781  0.12636961     1.00900
C1806       C  0.80435829  0.85137383  0.12999807     1.13900
C1807       C  0.88594571  0.83741836  0.05199718     1.04600
O1808       O  0.94535333  0.85072711  0.08375359    -0.95000
O1809       O  0.94794482  0.93237662  0.10269433    -0.90700
O1810       O  0.94391106  0.96616995  0.13705570    -0.83900
C1811       C  0.95562900  0.95483822  0.11939257     1.11300
O1812       O  0.82654594  0.95436157  0.07805264    -0.97000
Zr1813     Zr  0.85759575  0.96143658  0.10576415     1.88900
O1814       O  0.89550181  0.03076681  0.14241474    -0.73600
O1815       O  0.91973798  0.94542328  0.06370572    -0.52900
O1816       O  0.86871902  0.99294098  0.06906825    -0.97500
O1817       O  0.82308642  0.99783466  0.11876869    -0.54800
O1818       O  0.86979346  0.03369800  0.11338432    -0.74100
C1819       C  0.88316128  0.05137376  0.12794308     0.98200
O1820       O  0.92985684  0.98870108  0.17915423    -0.62900
O1821       O  0.83598961  0.83749843  0.18855593    -0.57700
O1822       O  0.89463634  0.95925626  0.19170785    -0.94400
O1823       O  0.86309624  0.91814861  0.19896317    -0.92900
O1824       O  0.89045378  0.79481102  0.18665873    -0.93200
O1825       O  0.93223804  0.83278692  0.18197922    -0.92000
C1826       C  0.87966633  0.94261516  0.20540569     1.17100
H1827       H  0.85660951  0.80309383  0.15235015     0.33000
H1828       H  0.93656396  0.88899349  0.13819812     0.43900
H1829       H  0.85768617  0.98304982  0.15397920     0.37400
H1830       H  0.86855763  0.90072207  0.07276165     0.33900
H1831       H  0.95234325  0.81983780  0.14085010     0.25700
H1832       H  0.93250223  0.93293641  0.05478978     0.31600
H1833       H  0.86586763  0.97061988  0.05732385     0.37500
H1834       H  0.89390327  0.76394993  0.18529509     0.32000
H1835       H  0.82630614  0.85270123  0.19983419     0.30800
H1836       H  0.81485328  0.92875830  0.19119157     0.32500
H1837       H  0.82767861  0.02778887  0.12203109     0.31500
H1838       H  0.93418421  0.86400244  0.18436261     0.35500
H1839       H  0.94294498  0.96901763  0.18086678     0.28200
H1840       H  0.83914810  0.76627167  0.07649050     0.32500
H1841       H  0.82256388  0.98400745  0.07371405     0.35300
H1842       H  0.82506656  0.81950777  0.17974420     0.27900
H1843       H  0.93630609  0.01472295  0.17182511     0.40800
H1844       H  0.93927639  0.82103974  0.08349712     0.30800
H1845       H  0.93974303  0.78658161  0.12519038     0.38500
H1846       H  0.81975664  0.98545538  0.13404632     0.30300
H1847       H  0.90626677  0.94253755  0.05352352     0.30400
H1848       H  0.82591551  0.80822284  0.07028004     0.30600
Zr1849     Zr  0.15170998  0.10048810  0.10818532     2.17500
O1850       O  0.18006970  0.14731553  0.09008736    -0.51700
O1851       O  0.14056671  0.17483957  0.11642714    -0.74900
O1852       O  0.14421905  0.10679482  0.06663726    -0.81700
O1853       O  0.19635759  0.06354528  0.15280541    -0.83500
O1854       O  0.10962364  0.07556342  0.05984314    -0.79100
O1855       O  0.19202672  0.10027952  0.11942254    -0.90700
O1856       O  0.11352146  0.17688327  0.14427791    -0.76700
O1857       O  0.11118228  0.10276378  0.11171652    -0.86200
O1858       O  0.14406066  0.10274036  0.14851196    -0.85900
O1859       O  0.13854169  0.03464490  0.09041118    -0.72600
O1860       O  0.16694112  0.03589328  0.12435752    -0.84700
Zr1861     Zr  0.10373764  0.97527855  0.15063346     2.26400
Zr1862     Zr  0.09779790  0.03750851  0.09445470     2.06300
Zr1863     Zr  0.15876942  0.03767712  0.16444999     2.10000
Zr1864     Zr  0.10339901  0.10373325  0.15191596     1.78800
O1865       O  0.18636134  0.98503526  0.17758078    -0.93600
O1866       O  0.06864887  0.13659160  0.13735796    -0.41400
O1867       O  0.11809528  0.03964414  0.16815641    -0.78000
O1868       O  0.08851003  0.04030519  0.13467978    -0.96700
O1869       O  0.11209435  0.97236906  0.11058146    -0.90000
O1870       O  0.14444833  0.97272655  0.14778396    -0.92800
C1871       C  0.12710610  0.19512183  0.13010589     1.00900
C1872       C  0.20424737  0.08514673  0.13576331     1.13900
C1873       C  0.12763149  0.09610153  0.05316216     1.04600
O1874       O  0.06643390  0.08200040  0.08130858    -0.95000
O1875       O  0.06138344  0.00272366  0.10175877    -0.90700
O1876       O  0.06498595  0.96480173  0.13488174    -0.83900
C1877       C  0.05335300  0.97867982  0.11771856     1.11300
O1878       O  0.18215155  0.97787516  0.07814865    -0.97000
Zr1879     Zr  0.15280004  0.97092213  0.10776306     1.88900
O1880       O  0.11498677  0.90075916  0.14363170    -0.73600
O1881       O  0.09275215  0.98684640  0.06306206    -0.52900
O1882       O  0.14202168  0.93244390  0.07292790    -0.97500
O1883       O  0.18957347  0.94342531  0.12051322    -0.54800
O1884       O  0.14460110  0.89798485  0.11846011    -0.74100
C1885       C  0.12983833  0.88015450  0.13166725     0.98200
O1886       O  0.07680736  0.94364276  0.17804122    -0.62900
O1887       O  0.16972846  0.08732905  0.19488898    -0.57700
O1888       O  0.11096110  0.97184629  0.19203907    -0.94400
O1889       O  0.14379206  0.00871600  0.20015596    -0.92900
O1890       O  0.11127233  0.13371102  0.18971382    -0.93200
O1891       O  0.07124799  0.09715689  0.17843365    -0.92000
C1892       C  0.12627819  0.98607998  0.20603206     1.17100
H1893       H  0.15107733  0.12757675  0.15556415     0.33000
H1894       H  0.07223944  0.04248553  0.13722391     0.43900
H1895       H  0.15052238  0.94831912  0.15581281     0.37400
H1896       H  0.14310026  0.03177687  0.07460293     0.33900
H1897       H  0.06598119  0.16142746  0.14756213     0.25700
H1898       H  0.08307004  0.00203811  0.05183378     0.31600
H1899       H  0.12676775  0.91975482  0.07624898     0.37500
H1900       H  0.12060634  0.11181556  0.19751298     0.32000
H1901       H  0.18232562  0.07290883  0.20308186     0.30800
H1902       H  0.19562212  0.00017484  0.18931786     0.32500
H1903       H  0.18604434  0.92606482  0.13429462     0.31500
H1904       H  0.06810001  0.06600962  0.17936572     0.35500
H1905       H  0.06349074  0.96303939  0.17854078     0.28200
H1906       H  0.17128617  0.16813149  0.08091085     0.32500
H1907       H  0.18646775  0.94822004  0.07411353     0.35300
H1908       H  0.17726029  0.11173698  0.18700372     0.27900
H1909       H  0.07099715  0.91702294  0.17083204     0.40800
H1910       H  0.05778927  0.08925778  0.09539921     0.30800
H1911       H  0.07318019  0.14951357  0.12250293     0.38500
H1912       H  0.19789876  0.96878986  0.12652731     0.30300
H1913       H  0.10798600  0.98545280  0.05561896     0.30400
H1914       H  0.18808423  0.12933360  0.07868544     0.30600
Zr1915     Zr  0.15205320  0.59999621  0.10484340     2.17500
O1916       O  0.18126458  0.63871173  0.08290599    -0.51700
O1917       O  0.14579978  0.67443524  0.11683714    -0.74900
O1918       O  0.14025445  0.61442291  0.06501572    -0.81700
O1919       O  0.19789562  0.55132449  0.14445148    -0.83500
O1920       O  0.10493046  0.58577889  0.05936973    -0.79100
O1921       O  0.19290471  0.59409429  0.11334783    -0.90700
O1922       O  0.11844927  0.67672168  0.14449770    -0.76700
O1923       O  0.11210341  0.60717393  0.11203374    -0.86200
O1924       O  0.14735219  0.59905058  0.14560184    -0.85900
O1925       O  0.13504638  0.53855391  0.08610230    -0.72600
O1926       O  0.16574610  0.53168918  0.11762607    -0.84700
Zr1927     Zr  0.10252438  0.47644583  0.14674828     2.26400
Zr1928     Zr  0.09500484  0.54622653  0.09369744     2.06300
Zr1929     Zr  0.16041252  0.53057567  0.15817120     2.10000
Zr1930     Zr  0.10734560  0.60423591  0.15272232     1.78800
O1931       O  0.18621426  0.47462352  0.17077399    -0.93600
O1932       O  0.07140982  0.64227177  0.14776835    -0.41400
O1933       O  0.12041177  0.53647493  0.16538404    -0.78000
O1934       O  0.08857716  0.54536077  0.13442269    -0.96700
O1935       O  0.10782648  0.47737314  0.10620565    -0.90000
O1936       O  0.14270897  0.46951829  0.14054198    -0.92800
C1937       C  0.13283282  0.69468368  0.13094764     1.00900
C1938       C  0.20551338  0.57449283  0.12796520     1.13900
C1939       C  0.12263908  0.60640952  0.05236031     1.04600
O1940       O  0.06572069  0.59875762  0.08520270    -0.95000
O1941       O  0.05839053  0.51353247  0.10157294    -0.90700
O1942       O  0.06238172  0.47549107  0.13430904    -0.83900
C1943       C  0.05023473  0.49062101  0.11782140     1.11300
O1944       O  0.17637674  0.47780113  0.06945528    -0.97000
Zr1945     Zr  0.14793168  0.47096087  0.10000011     1.88900
O1946       O  0.11070917  0.40139264  0.13722491    -0.73600
O1947       O  0.08488583  0.50101220  0.06112319    -0.52900
O1948       O  0.13192331  0.44088211  0.06485025    -0.97500
O1949       O  0.18361524  0.43403757  0.10818648    -0.54800
O1950       O  0.13722743  0.39814115  0.10884728    -0.74100
C1951       C  0.12351631  0.38051196  0.12318561     0.98200
O1952       O  0.07712441  0.43530565  0.17193832    -0.62900
O1953       O  0.17499979  0.57924545  0.18761369    -0.57700
O1954       O  0.11174261  0.47144599  0.18769376    -0.94400
O1955       O  0.14708946  0.50048548  0.19393248    -0.92900
O1956       O  0.12340664  0.62882516  0.18902113    -0.93200
O1957       O  0.07953336  0.59551306  0.18363876    -0.92000
C1958       C  0.12876869  0.48140958  0.20071028     1.17100
H1959       H  0.15584448  0.62211082  0.15277000     0.33000
H1960       H  0.07266898  0.54966372  0.13818209     0.43900
H1961       H  0.14848094  0.44360835  0.14734798     0.37400
H1962       H  0.13834249  0.53769746  0.06989218     0.33900
H1963       H  0.07429662  0.67144164  0.15383638     0.25700
H1964       H  0.07217259  0.51617326  0.05351772     0.31600
H1965       H  0.13364065  0.46369726  0.05318941     0.37500
H1966       H  0.12868519  0.60247748  0.19672847     0.32000
H1967       H  0.18479548  0.56127739  0.19746236     0.30800
H1968       H  0.19757644  0.48952936  0.18060281     0.32500
H1969       H  0.18332545  0.40824293  0.09829392     0.31500
H1970       H  0.07652481  0.56428711  0.18431010     0.35500
H1971       H  0.06460025  0.45482926  0.17638612     0.28200
H1972       H  0.17396933  0.66564850  0.07796360     0.32500
H1973       H  0.17699203  0.44935369  0.06197410     0.35300
H1974       H  0.18587994  0.59867588  0.17963879     0.27900
H1975       H  0.06980551  0.41318615  0.16213716     0.40800
H1976       H  0.07277430  0.62679950  0.08900269     0.30800
H1977       H  0.06995129  0.64619134  0.13099032     0.38500
H1978       H  0.18179741  0.42274347  0.12395120     0.30300
H1979       H  0.09789899  0.50384845  0.05030182     0.30400
H1980       H  0.18354561  0.62211727  0.06860046     0.30600
Zr1981     Zr  0.15006387  0.34841553  0.39935110     2.17500
O1982       O  0.17901603  0.31496472  0.42337424    -0.51700
O1983       O  0.14121345  0.27272687  0.39182426    -0.74900
O1984       O  0.13819276  0.34087261  0.43971288    -0.81700
O1985       O  0.19573782  0.38315862  0.35434118    -0.83500
O1986       O  0.10375239  0.37256277  0.44492485    -0.79100
O1987       O  0.19059945  0.34705874  0.38788640    -0.90700
O1988       O  0.11155773  0.26710787  0.36693353    -0.76700
O1989       O  0.10966139  0.34312679  0.39431539    -0.86200
O1990       O  0.14374495  0.34260507  0.35902546    -0.85900
O1991       O  0.13545047  0.41398263  0.41543837    -0.72600
O1992       O  0.16548602  0.41265054  0.38251905    -0.84700
Zr1993     Zr  0.10307106  0.46779337  0.35258655     2.26400
Zr1994     Zr  0.09494011  0.40861839  0.40939946     2.06300
Zr1995     Zr  0.15849944  0.40734883  0.34227547     2.10000
Zr1996     Zr  0.10334406  0.33862293  0.35400857     1.78800
O1997       O  0.18550394  0.46145301  0.32852638    -0.93600
O1998       O  0.06623654  0.30675508  0.36341318    -0.41400
O1999       O  0.11808124  0.40268255  0.33698385    -0.78000
O2000       O  0.08713941  0.40296428  0.36903330    -0.96700
O2001       O  0.10970775  0.47323507  0.39275735    -0.90000
O2002       O  0.14351876  0.47287680  0.35724871    -0.92800
C2003       C  0.12659446  0.25073571  0.38014358     1.00900
C2004       C  0.20322733  0.36199859  0.37152994     1.13900
C2005       C  0.12091468  0.35139457  0.45222368     1.04600
O2006       O  0.06277605  0.36099230  0.41785830    -0.95000
O2007       O  0.06040614  0.44713847  0.40180942    -0.90700
O2008       O  0.06412393  0.47906250  0.36690119    -0.83900
C2009       C  0.05269252  0.46894725  0.38500764     1.11300
O2010       O  0.18160953  0.47528185  0.42479039    -0.97000
Zr2011     Zr  0.15002590  0.47739005  0.39754192     1.88900
O2012       O  0.11125266  0.54374840  0.36033915    -0.73600
O2013       O  0.08745969  0.45703915  0.44132697    -0.52900
O2014       O  0.13799190  0.51015500  0.43355841    -0.97500
O2015       O  0.18471763  0.51362801  0.38421482    -0.54800
O2016       O  0.13776843  0.54858058  0.38856278    -0.74100
C2017       C  0.12392495  0.56537489  0.37428034     0.98200
O2018       O  0.07738533  0.49489128  0.32309963    -0.62900
O2019       O  0.17079560  0.35575908  0.31344389    -0.57700
O2020       O  0.11364630  0.47183905  0.31182670    -0.94400
O2021       O  0.14479417  0.43033664  0.30525052    -0.92900
O2022       O  0.11754789  0.30179546  0.32006616    -0.93200
O2023       O  0.07600662  0.34009613  0.32249555    -0.92000
C2024       C  0.12864354  0.45475229  0.29850362     1.17100
H2025       H  0.15124364  0.31770524  0.35282363     0.33000
H2026       H  0.07089193  0.40061508  0.36622003     0.43900
H2027       H  0.14970650  0.49739914  0.34918668     0.37400
H2028       H  0.13913565  0.41717232  0.43148421     0.33900
H2029       H  0.06587645  0.27918103  0.35500886     0.25700
H2030       H  0.07603257  0.44180015  0.45097013     0.31600
H2031       H  0.12244591  0.52122353  0.43055125     0.37500
H2032       H  0.12464306  0.32464981  0.31059838     0.32000
H2033       H  0.18405355  0.36963397  0.30576344     0.30800
H2034       H  0.19156294  0.44977587  0.31395081     0.32500
H2035       H  0.17946103  0.53638397  0.37372124     0.31500
H2036       H  0.06739161  0.36692286  0.32478004     0.35500
H2037       H  0.06445275  0.47419234  0.32239102     0.28200
H2038       H  0.17147644  0.28947779  0.43022525     0.32500
H2039       H  0.18322529  0.50488978  0.43069665     0.35300
H2040       H  0.17751447  0.33172685  0.32210312     0.27900
H2041       H  0.07077358  0.52149823  0.32940036     0.40800
H2042       H  0.05345285  0.36072674  0.40369179     0.30800
H2043       H  0.06751966  0.29843984  0.37974027     0.38500
H2044       H  0.19209326  0.49254230  0.37398053     0.30300
H2045       H  0.10167445  0.45708776  0.45056127     0.30400
H2046       H  0.18163747  0.33486493  0.43637115     0.30600
Zr2047     Zr  0.15146378  0.84602228  0.40058973     2.17500
O2048       O  0.18216043  0.80493539  0.41797069    -0.51700
O2049       O  0.14167117  0.77102327  0.39148339    -0.74900
O2050       O  0.14246285  0.83414656  0.44143734    -0.81700
O2051       O  0.19619581  0.88954672  0.35639973    -0.83500
O2052       O  0.10727772  0.86189789  0.44828065    -0.79100
O2053       O  0.19218632  0.85255238  0.38968871    -0.90700
O2054       O  0.11288514  0.76875055  0.36547037    -0.76700
O2055       O  0.11102479  0.83953201  0.39591538    -0.86200
O2056       O  0.14438779  0.84546336  0.36024914    -0.85900
O2057       O  0.13601348  0.90834968  0.41960590    -0.72600
O2058       O  0.16556054  0.91330184  0.38621356    -0.84700
Zr2059     Zr  0.10154325  0.96884367  0.35995204     2.26400
Zr2060     Zr  0.09545425  0.90139252  0.41439272     2.06300
Zr2061     Zr  0.15804953  0.91308658  0.34608662     2.10000
Zr2062     Zr  0.10390342  0.84088255  0.35568587     1.78800
O2063       O  0.18318410  0.97169976  0.33422334    -0.93600
O2064       O  0.06674633  0.80986660  0.36579353    -0.41400
O2065       O  0.11743738  0.90754649  0.34109282    -0.78000
O2066       O  0.08737390  0.90113714  0.37399418    -0.96700
O2067       O  0.10894962  0.96908604  0.40021150    -0.90000
O2068       O  0.14212871  0.97534440  0.36392942    -0.92800
C2069       C  0.12719352  0.75073556  0.37875456     1.00900
C2070       C  0.20449132  0.86905930  0.37349864     1.13900
C2071       C  0.12534867  0.84202088  0.45474733     1.04600
O2072       O  0.06559130  0.85190825  0.42721776    -0.95000
O2073       O  0.05829256  0.93254531  0.40726500    -0.90700
O2074       O  0.06228929  0.97341304  0.37512244    -0.83900
C2075       C  0.05040684  0.95743985  0.39175103     1.11300
O2076       O  0.18029061  0.96718935  0.43182871    -0.97000
Zr2077     Zr  0.14941968  0.97485332  0.40412592     1.88900
O2078       O  0.11115296  0.04398863  0.36802865    -0.73600
O2079       O  0.08852011  0.95239534  0.44515443    -0.52900
O2080       O  0.13943002  0.00373814  0.44165576    -0.97500
O2081       O  0.18449488  0.01236634  0.39301333    -0.54800
O2082       O  0.13802165  0.04742920  0.39604271    -0.74100
C2083       C  0.12418858  0.06488692  0.38192685     0.98200
O2084       O  0.07035662  0.00469781  0.34020338    -0.62900
O2085       O  0.17335542  0.86561075  0.31674255    -0.57700
O2086       O  0.10933417  0.97312413  0.31821523    -0.94400
O2087       O  0.14231564  0.93783979  0.31018615    -0.92900
O2088       O  0.11739933  0.81405204  0.31881771    -0.93200
O2089       O  0.07429987  0.84092762  0.32627438    -0.92000
C2090       C  0.12471688  0.95931206  0.30412979     1.17100
H2091       H  0.15208255  0.82194890  0.35281863     0.33000
H2092       H  0.07127397  0.89754570  0.37096502     0.43900
H2093       H  0.14780196  0.00106458  0.35661932     0.37400
H2094       H  0.14010039  0.91018991  0.43559442     0.33900
H2095       H  0.06805210  0.77888486  0.36251918     0.25700
H2096       H  0.07600866  0.93925512  0.45431390     0.31600
H2097       H  0.12572724  0.02145196  0.43895050     0.37500
H2098       H  0.11561976  0.78256230  0.31976936     0.32000
H2099       H  0.15991241  0.85673591  0.30750826     0.30800
H2100       H  0.18674044  0.96576933  0.31791539     0.32500
H2101       H  0.18462699  0.03887372  0.40234727     0.31500
H2102       H  0.07653368  0.86841671  0.31809648     0.35500
H2103       H  0.07715828  0.03142786  0.33404906     0.28200
H2104       H  0.17451406  0.78125658  0.42632251     0.32500
H2105       H  0.18898398  0.94202893  0.42641885     0.35300
H2106       H  0.18235755  0.88456859  0.30645282     0.27900
H2107       H  0.06678625  0.98692066  0.32657365     0.40800
H2108       H  0.07177582  0.82303858  0.42419364     0.30800
H2109       H  0.06599931  0.81170159  0.38272696     0.38500
H2110       H  0.18186916  0.02234307  0.37713548     0.30300
H2111       H  0.10218802  0.95047271  0.45510532     0.30400
H2112       H  0.18859865  0.82364785  0.43011544     0.30600
C2113       C  0.12425444  0.68326633  0.35695274    -0.06200
C2114       C  0.12672509  0.70325318  0.37844772    -0.00200
C2115       C  0.12643038  0.67787681  0.39854897    -0.08800
C2116       C  0.12457354  0.63313361  0.39625484    -0.06200
C2117       C  0.12284349  0.61296808  0.37469803    -0.00300
C2118       C  0.12237347  0.63857147  0.35464946    -0.08700
C2119       C  0.12084759  0.61907200  0.33089436     0.61700
H2120       H  0.12406037  0.70322664  0.34177305     0.12400
H2121       H  0.12477368  0.61326360  0.41146766     0.12400
C2122       C  0.12778983  0.69759277  0.42231942     0.61900
F2123       F  0.12221060  0.64968544  0.31376387    -0.23300
F2124       F  0.10015339  0.59769673  0.32849777    -0.20600
F2125       F  0.13873175  0.59094892  0.32782865    -0.20300
F2126       F  0.11163840  0.72944637  0.42461858    -0.20300
F2127       F  0.14941003  0.71471425  0.42568214    -0.20700
F2128       F  0.12374305  0.66760716  0.43936716    -0.23300
C2129       C  0.10549242  0.18170662  0.38366525    -0.06200
C2130       C  0.12671962  0.20318485  0.38176444    -0.00200
C2131       C  0.14702328  0.17884110  0.37974409    -0.08800
C2132       C  0.14527934  0.13381925  0.37980341    -0.06200
C2133       C  0.12406425  0.11243341  0.38142589    -0.00300
C2134       C  0.10378418  0.13664915  0.38363572    -0.08700
C2135       C  0.08051922  0.11508090  0.38635011     0.61700
H2136       H  0.09012037  0.20069109  0.38508321     0.12400
H2137       H  0.16060925  0.11471149  0.37839980     0.12400
C2138       C  0.17040834  0.19997991  0.37697054     0.61900
F2139       F  0.06345417  0.14429775  0.39107100    -0.23300
F2140       F  0.08110347  0.08596964  0.40421176    -0.20600
F2141       F  0.07479931  0.09401059  0.36628158    -0.20300
F2142       F  0.17641396  0.22055130  0.39712007    -0.20300
F2143       F  0.16996070  0.22935053  0.35923046    -0.20700
F2144       F  0.18723396  0.17042794  0.37197100    -0.23300
C2145       C  0.12928152  0.50868381  0.24014037    -0.06200
C2146       C  0.12694674  0.47328035  0.22551662    -0.00200
C2147       C  0.12510669  0.43164557  0.23481328    -0.08800
C2148       C  0.12505403  0.42698733  0.25886079    -0.06200
C2149       C  0.12716450  0.46257728  0.27353991    -0.00300
C2150       C  0.12974817  0.50400754  0.26407109    -0.08700
C2151       C  0.13392268  0.54280724  0.27911876     0.61700
H2152       H  0.13111255  0.54018130  0.23254991     0.12400
H2153       H  0.12367916  0.39540813  0.26642455     0.12400
C2154       C  0.12435298  0.39252531  0.21935604     0.61900
F2155       F  0.13874651  0.57918641  0.26637375    -0.23300
F2156       F  0.15236321  0.53547961  0.29341388    -0.20600
F2157       F  0.11458412  0.55041398  0.29209350    -0.20300
F2158       F  0.14304463  0.39307460  0.20470437    -0.20300
F2159       F  0.10447290  0.39256316  0.20654077    -0.20700
F2160       F  0.12488765  0.35485846  0.23180321    -0.23300
C2161       C  0.15162996  0.81214749  0.13306426    -0.06200
C2162       C  0.13021937  0.83257589  0.13281029    -0.00200
C2163       C  0.10998750  0.80725850  0.13199081    -0.08800
C2164       C  0.11187682  0.76253641  0.13120674    -0.06200
C2165       C  0.13319794  0.74213221  0.13119801    -0.00300
C2166       C  0.15350843  0.76714928  0.13269338    -0.08700
C2167       C  0.17687112  0.74663267  0.13511393     0.61700
H2168       H  0.16696585  0.83187479  0.13379086     0.12400
H2169       H  0.09650576  0.74287998  0.13051105     0.12400
C2170       C  0.08646863  0.82720116  0.13144918     0.61900
F2171       F  0.19396137  0.77682742  0.13892070    -0.23300
F2172       F  0.18235205  0.72443601  0.11535757    -0.20600
F2173       F  0.17662742  0.71872797  0.15353267    -0.20300
F2174       F  0.08573214  0.85790322  0.11440193    -0.20300
F2175       F  0.08198619  0.84566095  0.15252553    -0.20700
F2176       F  0.06935623  0.79737051  0.12702602    -0.23300
C2177       C  0.12400590  0.31377763  0.14611823    -0.06200
C2178       C  0.12343899  0.33291387  0.12435331    -0.00200
C2179       C  0.12379081  0.30640813  0.10450643    -0.08800
C2180       C  0.12584494  0.26181148  0.10724762    -0.06200
C2181       C  0.12650285  0.24268415  0.12898796    -0.00300
C2182       C  0.12533090  0.26905938  0.14886558    -0.08700
C2183       C  0.12547251  0.25049463  0.17295729     0.61700
H2184       H  0.12349499  0.33433017  0.16109513     0.12400
H2185       H  0.12641066  0.24125709  0.09227604     0.12400
C2186       C  0.12110021  0.32453310  0.08049298     0.61900
F2187       F  0.12938896  0.28172978  0.18940218    -0.23300
F2188       F  0.14256618  0.22036202  0.17498648    -0.20600
F2189       F  0.10445624  0.23156009  0.17755841    -0.20300
F2190       F  0.14108775  0.34512211  0.07385810    -0.20300
F2191       F  0.10314442  0.35311699  0.08001816    -0.20700
F2192       F  0.11639389  0.29267385  0.06458855    -0.23300
C2193       C  0.11959612  0.01243796  0.24542710    -0.06200
C2194       C  0.12339257  0.97744365  0.23082799    -0.00200
C2195       C  0.12640386  0.93625794  0.24028981    -0.08800
C2196       C  0.12559032  0.93153435  0.26432201    -0.06200
C2197       C  0.12213935  0.96666866  0.27906319    -0.00300
C2198       C  0.11905265  0.00786760  0.26948527    -0.08700
C2199       C  0.11624564  0.04708233  0.28454231     0.61700
H2200       H  0.11753224  0.04372390  0.23774966     0.12400
H2201       H  0.12822007  0.90031158  0.27188613     0.12400
C2202       C  0.13154622  0.89803451  0.22507419     0.61900
F2203       F  0.11639392  0.08450752  0.27185538    -0.23300
F2204       F  0.13396452  0.04959632  0.30023185    -0.20600
F2205       F  0.09560612  0.04442969  0.29606645    -0.20300
F2206       F  0.15101484  0.90629023  0.21217564    -0.20300
F2207       F  0.11331512  0.89031438  0.21049820    -0.20700
F2208       F  0.13525606  0.86130799  0.23775319    -0.23300
C2209       C  0.01437995  0.00771897  0.11807597    -0.06200
C2210       C  0.02837493  0.97129561  0.11759711    -0.00200
C2211       C  0.01824585  0.93009298  0.11717677    -0.08800
C2212       C  0.99433020  0.92666383  0.11797745    -0.06200
C2213       C  0.98040766  0.96292850  0.11915512    -0.00300
C2214       C  0.99036128  0.00424579  0.11899032    -0.08700
C2215       C  0.97575089  0.04412941  0.11935330     0.61700
H2216       H  0.02250377  0.03904364  0.11814056     0.12400
H2217       H  0.98619661  0.89532952  0.11790632     0.12400
C2218       C  0.03250005  0.89009146  0.11550377     0.61900
F2219       F  0.98893010  0.08108709  0.11774513    -0.23300
F2220       F  0.96349140  0.04585466  0.13962653    -0.20600
F2221       F  0.96066848  0.04332905  0.10108157    -0.20300
F2222       F  0.04503671  0.88575948  0.13536815    -0.20300
F2223       F  0.04706897  0.89312960  0.09682444    -0.20700
F2224       F  0.01911174  0.85359235  0.11281395    -0.23300
C2225       C  0.89894669  0.61862519  0.12637269    -0.06200
C2226       C  0.87757450  0.59826525  0.12859969    -0.00200
C2227       C  0.85739403  0.62347990  0.12898554    -0.08800
C2228       C  0.85953406  0.66832702  0.12739040    -0.06200
C2229       C  0.88095732  0.68874788  0.12574110    -0.00300
C2230       C  0.90105090  0.66343134  0.12468637    -0.08700
C2231       C  0.92468050  0.68315799  0.12139824     0.61700
H2232       H  0.91412096  0.59894895  0.12578282     0.12400
H2233       H  0.84439000  0.68805967  0.12801218     0.12400
C2234       C  0.83370242  0.60368658  0.13206899     0.61900
F2235       F  0.94071461  0.65274743  0.11531140    -0.23300
F2236       F  0.93175854  0.70211967  0.14163841    -0.20600
F2237       F  0.92417573  0.71343846  0.10411097    -0.20300
F2238       F  0.83369846  0.57632177  0.15070739    -0.20300
F2239       F  0.82747834  0.58135857  0.11252404    -0.20700
F2240       F  0.81720692  0.63442136  0.13599980    -0.23300
C2241       C  0.88310928  0.16901818  0.11063957    -0.06200
C2242       C  0.87984734  0.18884077  0.13194391    -0.00200
C2243       C  0.87861387  0.16342370  0.15211718    -0.08800
C2244       C  0.88017375  0.11864664  0.15003194    -0.06200
C2245       C  0.88334610  0.09879717  0.12868261    -0.00300
C2246       C  0.88536458  0.12439417  0.10863376    -0.08700
C2247       C  0.89080380  0.10517681  0.08532196     0.61700
H2248       H  0.88443029  0.18906564  0.09552893     0.12400
H2249       H  0.87879066  0.09861226  0.16513857     0.12400
C2250       C  0.87556406  0.18317935  0.17574598     0.61900
F2251       F  0.89653798  0.13636738  0.06938882    -0.23300
F2252       F  0.87197041  0.08296565  0.07711112    -0.20600
F2253       F  0.90919044  0.07777558  0.08715487    -0.20300
F2254       F  0.85752252  0.21157110  0.17556334    -0.20300
F2255       F  0.89543572  0.20451110  0.18198916    -0.20700
F2256       F  0.87096409  0.15250423  0.19230687    -0.23300
C2257       C  0.98525056  0.49957553  0.11078889    -0.06200
C2258       C  0.97808235  0.46283954  0.12237374    -0.00200
C2259       C  0.99432031  0.43475761  0.13189603    -0.08800
C2260       C  0.01763512  0.44493019  0.12967395    -0.06200
C2261       C  0.02515804  0.48195660  0.11816022    -0.00300
C2262       C  0.00858422  0.51003422  0.10844035    -0.08700
C2263       C  0.01493560  0.55145650  0.09622107     0.61700
H2264       H  0.97224219  0.51990114  0.10345724     0.12400
H2265       H  0.03024879  0.42359569  0.13683493     0.12400
C2266       C  0.98704932  0.39398702  0.14413603     0.61900
F2267       F  0.99583072  0.57425433  0.08959204    -0.23300
F2268       F  0.02730314  0.54268703  0.07653051    -0.20600
F2269       F  0.02761878  0.57727892  0.11081467    -0.20300
F2270       F  0.97506522  0.36777349  0.12917988    -0.20300
F2271       F  0.97328185  0.40401034  0.16267054    -0.20700
F2272       F  0.00564249  0.37132337  0.15220294    -0.23300
C2273       C  0.99586490  0.52656227  0.38667296    -0.06200
C2274       C  0.98086465  0.49149165  0.38932867    -0.00200
C2275       C  0.98949519  0.44961331  0.39106495    -0.08800
C2276       C  0.01319601  0.44403599  0.38933561    -0.06200
C2277       C  0.02821664  0.47886229  0.38603054    -0.00300
C2278       C  0.01965803  0.52094800  0.38504295    -0.08700
C2279       C  0.03554905  0.55950824  0.38318152     0.61700
H2280       H  0.98871024  0.55837339  0.38557174     0.12400
H2281       H  0.02025785  0.41215183  0.39037736     0.12400
C2282       C  0.97384226  0.41129209  0.39532571     0.61900
F2283       F  0.02370259  0.59761790  0.38458099    -0.23300
F2284       F  0.04700749  0.55878948  0.36242030    -0.20600
F2285       F  0.05131855  0.55875940  0.40085319    -0.20300
F2286       F  0.95974603  0.40463918  0.37662878    -0.20300
F2287       F  0.96052262  0.41853524  0.41458647    -0.20700
F2288       F  0.98611758  0.37420223  0.39890028    -0.23300
C2289       C  0.87206606  0.43923290  0.27285101    -0.06200
C2290       C  0.88235803  0.47799211  0.27912723    -0.00200
C2291       C  0.89259039  0.50425630  0.26219084    -0.08800
C2292       C  0.89122891  0.49149323  0.23900915    -0.06200
C2293       C  0.87988051  0.45343170  0.23236652    -0.00300
C2294       C  0.87086122  0.42596830  0.24980347    -0.08700
C2295       C  0.86014387  0.38259587  0.24457021     0.61700
H2296       H  0.86447942  0.41971960  0.28627333     0.12400
H2297       H  0.89843142  0.51200142  0.22582695     0.12400
C2298       C  0.90450878  0.54584269  0.26873274     0.61900
F2299       F  0.85698834  0.35837929  0.26423397    -0.23300
F2300       F  0.87421766  0.35973007  0.22999562    -0.20600
F2301       F  0.83893859  0.38812119  0.23460388    -0.20300
F2302       F  0.92154072  0.53772814  0.28455860    -0.20300
F2303       F  0.88882014  0.57356961  0.27831338    -0.20700
F2304       F  0.91448702  0.56575072  0.24994607    -0.23300
C2305       C  0.87962042  0.82276362  0.39708534    -0.06200
C2306       C  0.88220291  0.84405816  0.37598255    -0.00200
C2307       C  0.88280399  0.81982035  0.35543250    -0.08800
C2308       C  0.88125346  0.77486041  0.35691531    -0.06200
C2309       C  0.87856452  0.75353120  0.37805394    -0.00300
C2310       C  0.87778368  0.77791806  0.39856856    -0.08700
C2311       C  0.87554149  0.75704494  0.42199190     0.61700
H2312       H  0.87894472  0.84187309  0.41258989     0.12400
H2313       H  0.88188878  0.75580612  0.34139029     0.12400
C2314       C  0.88403655  0.84117074  0.33203223     0.61900
F2315       F  0.87714594  0.78665089  0.43963383    -0.23300
F2316       F  0.89274472  0.72741555  0.42493828    -0.20600
F2317       F  0.85446253  0.73694782  0.42381189    -0.20300
F2318       F  0.90460544  0.86300206  0.32966493    -0.20300
F2319       F  0.86611768  0.86951820  0.32972837    -0.20700
F2320       F  0.88252870  0.81170314  0.31432420    -0.23300
C2321       C  0.88107188  0.27478891  0.35898959    -0.06200
C2322       C  0.87802645  0.25291636  0.37987435    -0.00200
C2323       C  0.87720582  0.27669825  0.40057827    -0.08800
C2324       C  0.87982708  0.32156928  0.39953703    -0.06200
C2325       C  0.88293736  0.34346223  0.37862566    -0.00300
C2326       C  0.88308481  0.31968491  0.35788094    -0.08700
C2327       C  0.88421703  0.34138100  0.33458686     0.61700
H2328       H  0.88156126  0.25616457  0.34330831     0.12400
H2329       H  0.87912244  0.34019933  0.41520500     0.12400
C2330       C  0.87346641  0.25524298  0.42365830     0.61900
F2331       F  0.88158010  0.31239293  0.31676529    -0.23300
F2332       F  0.90519640  0.36158556  0.33184675    -0.20600
F2333       F  0.86689353  0.37111668  0.33286180    -0.20300
F2334       F  0.88870383  0.22202817  0.42650618    -0.20300
F2335       F  0.85130848  0.23953096  0.42480806    -0.20700
F2336       F  0.87655412  0.28357448  0.44170429    -0.23300
C2337       C  0.98568434  0.94747484  0.38743201    -0.06200
C2338       C  0.97900272  0.98953200  0.39202972    -0.00200
C2339       C  0.99600440  0.02114629  0.39715222    -0.08800
C2340       C  0.01918486  0.00914997  0.39715308    -0.06200
C2341       C  0.02573353  0.96707783  0.39248774    -0.00300
C2342       C  0.00879658  0.93546790  0.38779133    -0.08700
C2343       C  0.01504853  0.88944918  0.38256882     0.61700
H2344       H  0.97250833  0.92392802  0.38357396     0.12400
H2345       H  0.03248679  0.03256390  0.40084353     0.12400
C2346       C  0.99003826  0.06755811  0.40198136     0.61900
F2347       F  0.99591895  0.86438690  0.37794736    -0.23300
F2348       F  0.02606459  0.87180002  0.40118789    -0.20600
F2349       F  0.02925477  0.88815636  0.36359530    -0.20300
F2350       F  0.97925100  0.07054921  0.42305061    -0.20300
F2351       F  0.97582159  0.08295190  0.38499528    -0.20700
F2352       F  0.00933778  0.09365239  0.40260290    -0.23300
C2353       C  0.88214557  0.93552443  0.27090821    -0.06200
C2354       C  0.88211311  0.97906838  0.27679932    -0.00200
C2355       C  0.88288357  0.01035331  0.25918906    -0.08800
C2356       C  0.88274861  0.99683284  0.23614520    -0.06200
C2357       C  0.88137408  0.95338935  0.23018496    -0.00300
C2358       C  0.88156352  0.92197225  0.24780248    -0.08700
C2359       C  0.88124421  0.87441946  0.24237398     0.61700
H2360       H  0.88170305  0.91215419  0.28462495     0.12400
H2361       H  0.88293295  0.02031284  0.22248304     0.12400
C2362       C  0.88404210  0.05786539  0.26467109     0.61900
F2363       F  0.88550703  0.84996623  0.26168104    -0.23300
F2364       F  0.89788563  0.86516017  0.22622722    -0.20600
F2365       F  0.86000063  0.86262911  0.23393994    -0.20300
F2366       F  0.90226327  0.06611311  0.27919906    -0.20300
F2367       F  0.86394443  0.07052445  0.27508327    -0.20700
F2368       F  0.88701250  0.08244099  0.24512111    -0.23300
C2369       C  0.73903254  0.55951112  0.37765718    -0.06200
C2370       C  0.72984142  0.60039908  0.37434354    -0.00200
C2371       C  0.74487147  0.63641493  0.37299714    -0.08800
C2372       C  0.76860877  0.62978996  0.37338941    -0.06200
C2373       C  0.77769198  0.58880166  0.37517940    -0.00300
C2374       C  0.76287800  0.55305811  0.37813516    -0.08700
C2375       C  0.77229760  0.50866421  0.38234878     0.61700
H2376       H  0.72737653  0.53249781  0.37928222     0.12400
H2377       H  0.78037475  0.65661834  0.37160584     0.12400
C2378       C  0.73616546  0.68186109  0.37142016     0.61900
F2379       F  0.75510765  0.47927920  0.38731151    -0.23300
F2380       F  0.78719985  0.50995932  0.40075376    -0.20600
F2381       F  0.78383704  0.49452301  0.36310766    -0.20300
F2382       F  0.71943292  0.68847988  0.38781801    -0.20300
F2383       F  0.72730045  0.68886575  0.34984962    -0.20700
F2384       F  0.75348281  0.71170010  0.37507905    -0.23300
C2385       C  0.62429742  0.86787862  0.39607121    -0.06200
C2386       C  0.62246742  0.84683717  0.37478555    -0.00200
C2387       C  0.62183887  0.87135261  0.35434652    -0.08800
C2388       C  0.62317328  0.91620717  0.35609548    -0.06200
C2389       C  0.62536053  0.93713989  0.37736622    -0.00300
C2390       C  0.62571070  0.91268511  0.39779389    -0.08700
C2391       C  0.62737377  0.93342881  0.42132368     0.61700
H2392       H  0.62482929  0.84866752  0.41151597     0.12400
H2393       H  0.62261839  0.93554238  0.34069494     0.12400
C2394       C  0.62043529  0.85062388  0.33077154     0.61900
F2395       F  0.62416407  0.90401951  0.43881978    -0.23300
F2396       F  0.61088932  0.96467123  0.42369353    -0.20600
F2397       F  0.64885086  0.95156540  0.42396288    -0.20300
F2398       F  0.59947651  0.83023801  0.32823730    -0.20300
F2399       F  0.63783470  0.82122232  0.32819960    -0.20700
F2400       F  0.62259475  0.88040112  0.31330564    -0.23300
C2401       C  0.63844391  0.36755952  0.39140367    -0.06200
C2402       C  0.62520618  0.34638253  0.37447753    -0.00200
C2403       C  0.61520984  0.37137013  0.35687704    -0.08800
C2404       C  0.61800954  0.41619689  0.35767154    -0.06200
C2405       C  0.63051821  0.43753238  0.37511129    -0.00300
C2406       C  0.64163133  0.41229926  0.39193932    -0.08700
C2407       C  0.65671520  0.43167778  0.41058889     0.61700
H2408       H  0.64639542  0.34862505  0.40464317     0.12400
H2409       H  0.61006892  0.43511016  0.34441350     0.12400
C2410       C  0.60174518  0.35155074  0.33713134     0.61900
F2411       F  0.66598691  0.40086719  0.42478235    -0.23300
F2412       F  0.64393213  0.45884313  0.42418566    -0.20600
F2413       F  0.67479817  0.45390289  0.40067226    -0.20300
F2414       F  0.58198723  0.33233765  0.34544976    -0.20300
F2415       F  0.61499240  0.32155234  0.32588794    -0.20700
F2416       F  0.59528263  0.38170089  0.32107099    -0.23300
C2417       C  0.76521663  0.12874317  0.37316897    -0.06200
C2418       C  0.77469527  0.08774803  0.37151332    -0.00200
C2419       C  0.75981672  0.05143770  0.37087424    -0.08800
C2420       C  0.73596461  0.05771256  0.37059305    -0.06200
C2421       C  0.72659145  0.09869616  0.37130719    -0.00300
C2422       C  0.74132147  0.13487623  0.37323126    -0.08700
C2423       C  0.73179527  0.17952587  0.37627874     0.61700
H2424       H  0.77673806  0.15606151  0.37413122     0.12400
H2425       H  0.72434415  0.03053843  0.36960777     0.12400
C2426       C  0.76891123  0.00614761  0.37148930     0.61900
F2427       F  0.74889888  0.20947725  0.38051631    -0.23300
F2428       F  0.71684739  0.17977502  0.39471263    -0.20600
F2429       F  0.72032019  0.19178110  0.35669309    -0.20300
F2430       F  0.78354633  0.00182753  0.38993744    -0.20300
F2431       F  0.78046455  0.99723477  0.35139066    -0.20700
F2432       F  0.75148590  0.97608398  0.37385324    -0.23300
C2433       C  0.74125512  0.87779437  0.12555529    -0.06200
C2434       C  0.73173738  0.83673719  0.12361859    -0.00200
C2435       C  0.74620366  0.80070191  0.12152989    -0.08800
C2436       C  0.76996736  0.80686500  0.12342436    -0.06200
C2437       C  0.77939904  0.84762272  0.12705018    -0.00300
C2438       C  0.76502721  0.88396165  0.12709098    -0.08700
C2439       C  0.77480248  0.92901108  0.12799285     0.61700
H2440       H  0.72986178  0.90490568  0.12668642     0.12400
H2441       H  0.78137278  0.77973888  0.12265398     0.12400
C2442       C  0.73670426  0.75614591  0.11687175     0.61900
F2443       F  0.75831080  0.95954436  0.12380467    -0.23300
F2444       F  0.79162605  0.93331629  0.11142934    -0.20600
F2445       F  0.78398824  0.93698891  0.14940487    -0.20300
F2446       F  0.72222428  0.75725099  0.09813805    -0.20300
F2447       F  0.72477155  0.74136562  0.13577545    -0.20700
F2448       F  0.75394104  0.72726608  0.11211212    -0.23300
C2449       C  0.61569678  0.70441317  0.23589163    -0.06200
C2450       C  0.63183012  0.73482453  0.22793599    -0.00200
C2451       C  0.64674865  0.75496134  0.24427725    -0.08800
C2452       C  0.64515645  0.74287500  0.26748871    -0.06200
C2453       C  0.62921914  0.71240751  0.27505775    -0.00300
C2454       C  0.61428294  0.69257432  0.25916630    -0.08700
C2455       C  0.59765795  0.65765304  0.26669144     0.61700
H2456       H  0.60443356  0.68901332  0.22361640     0.12400
H2457       H  0.65656925  0.75695218  0.28010553     0.12400
C2458       C  0.66427976  0.78927011  0.23783710     0.61900
F2459       F  0.58564923  0.64049003  0.24835494    -0.23300
F2460       F  0.58199557  0.67413393  0.28208402    -0.20600
F2461       F  0.60956832  0.62490784  0.27709401    -0.20300
F2462       F  0.65368587  0.82181300  0.22592870    -0.20300
F2463       F  0.68144918  0.77145440  0.22463377    -0.20700
F2464       F  0.67458442  0.80752917  0.25690920    -0.23300
C2465       C  0.60605612  0.52098711  0.12643275    -0.06200
C2466       C  0.62749361  0.50064725  0.12633675    -0.00200
C2467       C  0.64772900  0.52605086  0.12716250    -0.08800
C2468       C  0.64568928  0.57091199  0.12770228    -0.06200
C2469       C  0.62427609  0.59117948  0.12769188    -0.00300
C2470       C  0.60403598  0.56589522  0.12696107    -0.08700
C2471       C  0.58046964  0.58602120  0.12602662     0.61700
H2472       H  0.59073742  0.50118392  0.12594561     0.12400
H2473       H  0.66098397  0.59080247  0.12811923     0.12400
C2474       C  0.67134886  0.50619193  0.12818041     0.61900
F2475       F  0.56331329  0.55568208  0.12291454    -0.23300
F2476       F  0.57946012  0.61467089  0.10798226    -0.20600
F2477       F  0.57610719  0.60723940  0.14634934    -0.20300
F2478       F  0.67611086  0.48590930  0.10765393    -0.20300
F2479       F  0.67215275  0.47688408  0.14592410    -0.20700
F2480       F  0.68835654  0.53657253  0.13193781    -0.23300
C2481       C  0.63147279  0.02251892  0.14727289    -0.06200
C2482       C  0.63201239  0.00058295  0.12613909    -0.00200
C2483       C  0.62972896  0.02412732  0.10551883    -0.08800
C2484       C  0.62734791  0.06888669  0.10681961    -0.06200
C2485       C  0.62682931  0.09075652  0.12791637    -0.00300
C2486       C  0.62898094  0.06730093  0.14856930    -0.08700
C2487       C  0.62926306  0.08946111  0.17180759     0.61700
H2488       H  0.63291854  0.00404461  0.16290972     0.12400
H2489       H  0.62592425  0.08742304  0.09120170     0.12400
C2490       C  0.62936088  0.00225552  0.08225293     0.61900
F2491       F  0.63369446  0.06118707  0.18947841    -0.23300
F2492       F  0.60820038  0.10779871  0.17602532    -0.20600
F2493       F  0.64610635  0.12092048  0.17211859    -0.20300
F2494       F  0.61293564  0.97005242  0.08203948    -0.20300
F2495       F  0.65060943  0.98505418  0.07777111    -0.20700
F2496       F  0.62432671  0.03053235  0.06474151    -0.23300
C2497       C  0.74142209  0.30580718  0.13287606    -0.06200
C2498       C  0.72919500  0.34362869  0.12873362    -0.00200
C2499       C  0.74134953  0.38237323  0.12470212    -0.08800
C2500       C  0.76538898  0.38210907  0.12592632    -0.06200
C2501       C  0.77742347  0.34449131  0.13047093    -0.00300
C2502       C  0.76546959  0.30562287  0.13381424    -0.08700
C2503       C  0.77815555  0.26475720  0.13920582     0.61700
H2504       H  0.73189225  0.27635847  0.13572702     0.12400
H2505       H  0.77507620  0.41146494  0.12348401     0.12400
C2506       C  0.72917420  0.42388810  0.11965666     0.61900
F2507       F  0.76328797  0.23086648  0.14335112    -0.23300
F2508       F  0.79154330  0.27077972  0.15852212    -0.20600
F2509       F  0.79205028  0.25400509  0.12088235    -0.20300
F2510       F  0.71414842  0.43324771  0.13728308    -0.20300
F2511       F  0.71731607  0.41993326  0.09933808    -0.20700
F2512       F  0.74432866  0.45796289  0.11729628    -0.23300
C2513       C  0.60629039  0.22626007  0.23897502    -0.06200
C2514       C  0.62785066  0.22893229  0.22819008    -0.00200
C2515       C  0.64773508  0.22109714  0.24147708    -0.08800
C2516       C  0.64530881  0.21295772  0.26509743    -0.06200
C2517       C  0.62383983  0.21116711  0.27618180    -0.00300
C2518       C  0.60386033  0.21746242  0.26269435    -0.08700
C2519       C  0.58005170  0.21519300  0.27300695     0.61700
H2520       H  0.59122919  0.23215843  0.22868628     0.12400
H2521       H  0.66057308  0.20817348  0.27525203     0.12400
C2522       C  0.67159008  0.22035372  0.23094965     0.61900
F2523       F  0.56315504  0.21668062  0.25639911    -0.23300
F2524       F  0.57709767  0.24974320  0.28748363    -0.20600
F2525       F  0.57718558  0.17734866  0.28502437    -0.20300
F2526       F  0.67862649  0.26162567  0.22583129    -0.20300
F2527       F  0.67150070  0.19565519  0.21121871    -0.20700
F2528       F  0.68753571  0.20303397  0.24573675    -0.23300
C2529       C  0.23880139  0.82487453  0.38148209    -0.06200
C2530       C  0.22989006  0.86466096  0.37494070    -0.00200
C2531       C  0.24535846  0.89925443  0.37048479    -0.08800
C2532       C  0.26912088  0.89211263  0.37171346    -0.06200
C2533       C  0.27780277  0.85184281  0.37703008    -0.00300
C2534       C  0.26258184  0.81777621  0.38236187    -0.08700
C2535       C  0.27163379  0.77399135  0.38865932     0.61700
H2536       H  0.22696003  0.79887795  0.38516995     0.12400
H2537       H  0.28117603  0.91759628  0.36767718     0.12400
C2538       C  0.23708972  0.94360768  0.36431515     0.61900
F2539       F  0.25429273  0.74632466  0.39550951    -0.23300
F2540       F  0.28709668  0.77785379  0.40650892    -0.20600
F2541       F  0.28248275  0.75620780  0.36988509    -0.20300
F2542       F  0.22007494  0.95611363  0.37935489    -0.20300
F2543       F  0.22873535  0.94323458  0.34215590    -0.20700
F2544       F  0.25457209  0.97380141  0.36546398    -0.23300
C2545       C  0.49360925  0.75540593  0.38463144    -0.06200
C2546       C  0.47785484  0.72110334  0.38349280    -0.00200
C2547       C  0.48603593  0.67866808  0.38232830    -0.08800
C2548       C  0.50990127  0.67207694  0.38215941    -0.06200
C2549       C  0.52561987  0.70643093  0.38296066    -0.00300
C2550       C  0.51745194  0.74883739  0.38426439    -0.08700
C2551       C  0.53384185  0.78676136  0.38589399     0.61700
H2552       H  0.48700702  0.78764881  0.38564171     0.12400
H2553       H  0.51654988  0.63984994  0.38137789     0.12400
C2554       C  0.46967597  0.64061492  0.38237599     0.61900
F2555       F  0.52236408  0.82492878  0.38894362    -0.23300
F2556       F  0.54659965  0.79001155  0.36596495    -0.20600
F2557       F  0.54844627  0.78139520  0.40431152    -0.20300
F2558       F  0.45598217  0.64142276  0.36308399    -0.20300
F2559       F  0.45599520  0.64211300  0.40176785    -0.20700
F2560       F  0.48120946  0.60210630  0.38241952    -0.23300
C2561       C  0.37259084  0.56660149  0.39699480    -0.06200
C2562       C  0.37596703  0.58793854  0.37597076    -0.00200
C2563       C  0.37712677  0.56356258  0.35550313    -0.08800
C2564       C  0.37590266  0.51855350  0.35698274    -0.06200
C2565       C  0.37303117  0.49707551  0.37805054    -0.00300
C2566       C  0.37101577  0.52160865  0.39847088    -0.08700
C2567       C  0.36763637  0.50076426  0.42178432     0.61700
H2568       H  0.37125660  0.58571631  0.41244842     0.12400
H2569       H  0.37724106  0.49955010  0.34148831     0.12400
C2570       C  0.37910905  0.58479460  0.33213693     0.61900
F2571       F  0.36834232  0.53039437  0.43947406    -0.23300
F2572       F  0.38468043  0.47118636  0.42563006    -0.20600
F2573       F  0.34649784  0.48057817  0.42253279    -0.20300
F2574       F  0.40050634  0.60363125  0.32983826    -0.20300
F2575       F  0.36241506  0.61565598  0.32980776    -0.20700
F2576       F  0.37633222  0.55563388  0.31443579    -0.23300
C2577       C  0.38842820  0.06639194  0.39853882    -0.06200
C2578       C  0.38285614  0.08747249  0.37801328    -0.00200
C2579       C  0.37509574  0.06328464  0.35894352    -0.08800
C2580       C  0.37450278  0.01838651  0.36068094    -0.06200
C2581       C  0.38031279  0.99732691  0.38108222    -0.00300
C2582       C  0.38724689  0.02147659  0.40045750    -0.08700
C2583       C  0.39380345  0.99989872  0.42280798     0.61700
H2584       H  0.39361057  0.08559145  0.41315874     0.12400
H2585       H  0.36916207  0.99916853  0.34612205     0.12400
C2586       C  0.36636725  0.08474721  0.33732784     0.61900
F2587       F  0.40166025  0.02913290  0.43891696    -0.23300
F2588       F  0.41100374  0.97062755  0.41884268    -0.20600
F2589       F  0.37495038  0.97890608  0.43197265    -0.20300
F2590       F  0.38397846  0.10709255  0.32674759    -0.20300
F2591       F  0.34896871  0.11270887  0.34289871    -0.20700
F2592       F  0.35770475  0.05528153  0.32175737    -0.23300
C2593       C  0.23582994  0.31218233  0.37254591    -0.06200
C2594       C  0.22815960  0.35455671  0.37249099    -0.00200
C2595       C  0.24432906  0.38875821  0.37299033    -0.08800
C2596       C  0.26777636  0.37919209  0.37281598    -0.06200
C2597       C  0.27545672  0.33695217  0.37193340    -0.00300
C2598       C  0.25935138  0.30264909  0.37218931    -0.08700
C2599       C  0.26691426  0.25630257  0.37260189     0.61700
H2600       H  0.22318884  0.28656913  0.37234195     0.12400
H2601       H  0.28042093  0.40479572  0.37292032     0.12400
C2602       C  0.23698215  0.43515330  0.37425803     0.61900
F2603       F  0.24870364  0.22850123  0.37644039    -0.23300
F2604       F  0.28268882  0.25045083  0.38996582    -0.20600
F2605       F  0.27671822  0.24568827  0.35179352    -0.20300
F2606       F  0.22233834  0.44062715  0.39268419    -0.20300
F2607       F  0.22602125  0.44641693  0.35422150    -0.20700
F2608       F  0.25546876  0.46274268  0.37711601    -0.23300
C2609       C  0.49416849  0.26041224  0.39086468    -0.06200
C2610       C  0.47812895  0.22657424  0.38986437    -0.00200
C2611       C  0.48574839  0.18375331  0.39090822    -0.08800
C2612       C  0.50943126  0.17631074  0.39206887    -0.06200
C2613       C  0.52545245  0.21012717  0.39190949    -0.00300
C2614       C  0.51785024  0.25291231  0.39173685    -0.08700
C2615       C  0.53461653  0.29035800  0.39241945     0.61700
H2616       H  0.48798733  0.29298725  0.39029134     0.12400
H2617       H  0.51570956  0.14379015  0.39239350     0.12400
C2618       C  0.46903029  0.14622787  0.39136680     0.61900
F2619       F  0.52366611  0.32860683  0.39684823    -0.23300
F2620       F  0.54564141  0.29390780  0.37150526    -0.20600
F2621       F  0.55070936  0.28421237  0.40947581    -0.20300
F2622       F  0.45776828  0.14309622  0.37060194    -0.20300
F2623       F  0.45317647  0.15199544  0.40874966    -0.20700
F2624       F  0.48001357  0.10782010  0.39521490    -0.23300
C2625       C  0.26896168  0.54993872  0.12598132    -0.06200
C2626       C  0.27822702  0.59136102  0.12686213    -0.00200
C2627       C  0.26359897  0.62723152  0.12527860    -0.08800
C2628       C  0.23982385  0.62029628  0.12507142    -0.06200
C2629       C  0.23052083  0.57893042  0.12584837    -0.00300
C2630       C  0.24518027  0.54301503  0.12510508    -0.08700
C2631       C  0.23583994  0.49780069  0.12247688     0.61700
H2632       H  0.28051320  0.52300909  0.12643564     0.12400
H2633       H  0.22825430  0.64721227  0.12486019     0.12400
C2634       C  0.27298665  0.67246452  0.12306608     0.61900
F2635       F  0.25303853  0.46889056  0.11770240    -0.23300
F2636       F  0.22035484  0.49639479  0.10455819    -0.20600
F2637       F  0.22510347  0.48497059  0.14246737    -0.20300
F2638       F  0.28796801  0.67450922  0.10468724    -0.20300
F2639       F  0.28431811  0.68416228  0.14288670    -0.20700
F2640       F  0.25577930  0.70185962  0.11933892    -0.23300
C2641       C  0.48637018  0.74963014  0.12133236    -0.06200
C2642       C  0.48068160  0.70620375  0.12282286    -0.00200
C2643       C  0.49816228  0.67543181  0.12548486    -0.08800
C2644       C  0.52113503  0.68930389  0.12488021    -0.06200
C2645       C  0.52691602  0.73262803  0.12196906    -0.00300
C2646       C  0.50928780  0.76358162  0.12084161    -0.08700
C2647       C  0.51444671  0.81113106  0.11924213     0.61700
H2648       H  0.47260770  0.77251885  0.11998192     0.12400
H2649       H  0.53483013  0.66632126  0.12642733     0.12400
C2650       C  0.49259126  0.62855339  0.12981953     0.61900
F2651       F  0.49488547  0.83544554  0.12179943    -0.23300
F2652       F  0.52375728  0.82018061  0.09799202    -0.20600
F2653       F  0.52964721  0.82318427  0.13628357    -0.20300
F2654       F  0.48197319  0.61092224  0.11084875    -0.20300
F2655       F  0.47822884  0.62489349  0.14863261    -0.20700
F2656       F  0.51207403  0.60503860  0.13425058    -0.23300
C2657       C  0.39371133  0.71463262  0.26726399    -0.06200
C2658       C  0.37233099  0.72393275  0.27716324    -0.00200
C2659       C  0.35244893  0.72140841  0.26310117    -0.08800
C2660       C  0.35502476  0.71190588  0.23962503    -0.06200
C2661       C  0.37644847  0.70355113  0.22966595    -0.00300
C2662       C  0.39615555  0.70387290  0.24391354    -0.08700
C2663       C  0.41991392  0.69412908  0.23490159     0.61700
H2664       H  0.40885190  0.71684173  0.27790640     0.12400
H2665       H  0.34007305  0.71122989  0.22865603     0.12400
C2666       C  0.32841955  0.72747647  0.27252449     0.61900
F2667       F  0.43484914  0.68420444  0.25249600    -0.23300
F2668       F  0.42838320  0.72987475  0.22377649    -0.20600
F2669       F  0.41937645  0.65953967  0.22006406    -0.20300
F2670       F  0.32496391  0.77020290  0.27752361    -0.20300
F2671       F  0.32541385  0.70300554  0.29207283    -0.20700
F2672       F  0.31181197  0.71479972  0.25693295    -0.23300
C2673       C  0.40060947  0.91294885  0.12959803    -0.06200
C2674       C  0.37929984  0.93353647  0.12815155    -0.00200
C2675       C  0.35892284  0.90859758  0.12867568    -0.08800
C2676       C  0.36066951  0.86382632  0.13016695    -0.06200
C2677       C  0.38195998  0.84322472  0.13142777    -0.00300
C2678       C  0.40235776  0.86812279  0.13122161    -0.08700
C2679       C  0.42584268  0.84763678  0.13212388     0.61700
H2680       H  0.41602825  0.93249963  0.12944940     0.12400
H2681       H  0.34523802  0.84430166  0.13033196     0.12400
C2682       C  0.33544176  0.92905073  0.12854475     0.61900
F2683       F  0.44332886  0.87749239  0.12961828    -0.23300
F2684       F  0.42792313  0.81783778  0.11466976    -0.20600
F2685       F  0.42871942  0.82773090  0.15306161    -0.20300
F2686       F  0.33177945  0.94886459  0.10770591    -0.20300
F2687       F  0.33412626  0.95885719  0.14605499    -0.20700
F2688       F  0.31803088  0.89927711  0.13178197    -0.23300
C2689       C  0.38202403  0.36547065  0.10522419    -0.06200
C2690       C  0.38241890  0.34360054  0.12633135    -0.00200
C2691       C  0.38030226  0.36724376  0.14697701    -0.08800
C2692       C  0.37824818  0.41202113  0.14575306    -0.06200
C2693       C  0.37825380  0.43399270  0.12472949    -0.00300
C2694       C  0.38008448  0.41040692  0.10400188    -0.08700
C2695       C  0.38040225  0.43239185  0.08075750     0.61700
H2696       H  0.38326918  0.34685813  0.08958486     0.12400
H2697       H  0.37689584  0.43054371  0.16141600     0.12400
C2698       C  0.38010767  0.34550690  0.17025736     0.61900
F2699       F  0.38412569  0.40375782  0.06301464    -0.23300
F2700       F  0.39766944  0.46301487  0.08008352    -0.20600
F2701       F  0.35956598  0.45168335  0.07694346    -0.20300
F2702       F  0.40153654  0.32895793  0.17461799    -0.20300
F2703       F  0.36394714  0.31283939  0.17062301    -0.20700
F2704       F  0.37481344  0.37376034  0.18776220    -0.23300
C2705       C  0.26512421  0.12893844  0.13406735    -0.06200
C2706       C  0.27756906  0.09100840  0.13081214    -0.00200
C2707       C  0.26563132  0.05153088  0.12869923    -0.08800
C2708       C  0.24160807  0.05141577  0.13034407    -0.12600
C2709       C  0.22931377  0.08919818  0.13381038    -0.00300
C2710       C  0.24107072  0.12876945  0.13555713    -0.08700
C2711       C  0.22835856  0.17016851  0.13990752     0.61700
H2712       H  0.27452011  0.15884626  0.13574205     0.12400
H2713       H  0.23210713  0.02160277  0.12882572     0.12400
C2714       C  0.27800032  0.00960336  0.12526175     0.61900
F2715       F  0.24321602  0.20463566  0.14251670    -0.23300
F2716       F  0.21543105  0.16643225  0.15973427    -0.20600
F2717       F  0.21404954  0.17881102  0.12167788    -0.20300
F2718       F  0.29534973  0.00584143  0.14118493    -0.20300
F2719       F  0.28708316  0.00831211  0.10338600    -0.20700
F2720       F  0.26343015  0.97469676  0.12783596    -0.23300
C2721       C  0.49610843  0.17160654  0.11798158    -0.06200
C2722       C  0.48051872  0.20558692  0.11680449    -0.00200
C2723       C  0.48869462  0.24805488  0.11447112    -0.08800
C2724       C  0.51246920  0.25526240  0.11434693    -0.06200
C2725       C  0.52807257  0.22155590  0.11654172    -0.00300
C2726       C  0.51993430  0.17885712  0.11785567    -0.08700
C2727       C  0.53624407  0.14128098  0.11850603     0.61700
H2728       H  0.48941313  0.13924115  0.11935622     0.12400
H2729       H  0.51913429  0.28764245  0.11297521     0.12400
C2730       C  0.47248365  0.28538188  0.11154212     0.61900
F2731       F  0.52481245  0.10256829  0.11582456    -0.23300
F2732       F  0.54751512  0.14055138  0.13931006    -0.20600
F2733       F  0.55216943  0.14494052  0.10097828    -0.20300
F2734       F  0.45981817  0.29107275  0.13135288    -0.20300
F2735       F  0.45779775  0.27740270  0.09340631    -0.20700
F2736       F  0.48418633  0.32320904  0.10701671    -0.23300
C2737       C  0.35845593  0.22661248  0.26359676    -0.06200
C2738       C  0.37922333  0.22413697  0.27579847    -0.00200
C2739       C  0.39967926  0.21600892  0.26313637    -0.08800
C2740       C  0.39826067  0.20930378  0.23918719    -0.06200
C2741       C  0.37738907  0.21088563  0.22732957    -0.00300
C2742       C  0.35714968  0.22104197  0.23970238    -0.08700
C2743       C  0.33417057  0.22729779  0.22792402     0.61700
H2744       H  0.34283192  0.23286487  0.27299761     0.12400
H2745       H  0.41352360  0.20147797  0.22952306     0.12400
C2746       C  0.42299262  0.21401298  0.27443548     0.61900
F2747       F  0.31828669  0.24611011  0.24234889    -0.23300
F2748       F  0.32522783  0.18821201  0.22112699    -0.20600
F2749       F  0.33688925  0.25372926  0.20905409    -0.20300
F2750       F  0.42371491  0.17846925  0.28848674    -0.20300
F2751       F  0.42701232  0.25095490  0.28697154    -0.20700
F2752       F  0.44055437  0.21044133  0.25856277    -0.23300
C2753       C  0.14389000  0.83378806  0.51752857    -0.06200
C2754       C  0.12270159  0.82548325  0.52818431    -0.00200
C2755       C  0.10354780  0.81479212  0.51424023    -0.08800
C2756       C  0.10567877  0.81806624  0.49024558    -0.06200
C2757       C  0.12636516  0.83008529  0.47957130    -0.00300
C2758       C  0.14620459  0.83587656  0.49343612    -0.08700
C2759       C  0.16966177  0.84501087  0.48318214     0.61700
H2760       H  0.15852966  0.84074878  0.52832289     0.12400
H2761       H  0.09073506  0.81274970  0.47958493     0.12400
C2762       C  0.08066922  0.80080033  0.52432317     0.61900
F2763       F  0.18624005  0.85092922  0.49987556    -0.23300
F2764       F  0.16915373  0.88162249  0.46987941    -0.20600
F2765       F  0.17612307  0.81049672  0.46993074    -0.20300
F2766       F  0.06891207  0.83613319  0.53214994    -0.20300
F2767       F  0.08400152  0.77248163  0.54222392    -0.20700
F2768       F  0.06716147  0.78027766  0.50810988    -0.23300
C2769       C  0.14183092  0.35758502  0.48864679    -0.06200
C2770       C  0.12207661  0.34319504  0.47724786    -0.00200
C2771       C  0.10349647  0.32630710  0.49020550    -0.08800
C2772       C  0.10528006  0.32549460  0.51432196    -0.06200
C2773       C  0.12473651  0.34150447  0.52579918    -0.00300
C2774       C  0.14336115  0.35791759  0.51273050    -0.08700
C2775       C  0.16422713  0.37804583  0.52401297     0.61700
H2776       H  0.15572304  0.37079070  0.47844715     0.12400
H2777       H  0.09108357  0.31353392  0.52453831     0.12400
C2778       C  0.08206254  0.30863844  0.47871130     0.61900
F2779       F  0.17879087  0.39709607  0.50818319    -0.23300
F2780       F  0.17634473  0.34688017  0.53535453    -0.20600
F2781       F  0.15749580  0.40926206  0.53939070    -0.20300
F2782       F  0.08813012  0.27836125  0.46252040    -0.20300
F2783       F  0.07018638  0.34117602  0.46816035    -0.20700
F2784       F  0.06737677  0.28928925  0.49432870    -0.23300
C2785       C  0.11612805  0.61703424  0.61302025    -0.06200
C2786       C  0.12161654  0.59536785  0.63333213    -0.00200
C2787       C  0.12771133  0.61901601  0.65318079    -0.08800
C2788       C  0.12953030  0.66390776  0.65145576    -0.06200
C2789       C  0.12446011  0.68551808  0.63096670    -0.00300
C2790       C  0.11645840  0.66195892  0.61177369    -0.08700
C2791       C  0.10659631  0.68402908  0.59084179     0.61700
H2792       H  0.11093063  0.59827195  0.59824064     0.12400
H2793       H  0.13463965  0.68271344  0.66624397     0.12400
C2794       C  0.13241793  0.59708819  0.67592680     0.61900
F2795       F  0.12283179  0.71053625  0.58085069    -0.23300
F2796       F  0.08790657  0.70806255  0.59742961    -0.20600
F2797       F  0.09931813  0.65490103  0.57440361    -0.20300
F2798       F  0.15011167  0.56830921  0.67341751    -0.20300
F2799       F  0.11295415  0.57552918  0.68327230    -0.20700
F2800       F  0.13847986  0.62615448  0.69286121    -0.23300
C2801       C  0.12719358  0.16492675  0.64581481    -0.06200
C2802       C  0.12827830  0.18628789  0.62456261    -0.00200
C2803       C  0.12707159  0.16182467  0.60410238    -0.08800
C2804       C  0.12527727  0.11683267  0.60576281    -0.06200
C2805       C  0.12394298  0.09545123  0.62704035    -0.00300
C2806       C  0.12489662  0.12006532  0.64752346    -0.08700
C2807       C  0.12371255  0.09956435  0.67115571     0.61700
H2808       H  0.12780210  0.18407590  0.66131052     0.12400
H2809       H  0.12456755  0.09782065  0.59022728     0.12400
C2810       C  0.12664509  0.18294372  0.58064802     0.61900
F2811       F  0.12758935  0.12905721  0.68850991    -0.23300
F2812       F  0.14008758  0.06804248  0.67302822    -0.20600
F2813       F  0.10219391  0.08187710  0.67460134    -0.20300
F2814       F  0.14747147  0.20275295  0.57634152    -0.20300
F2815       F  0.10940382  0.21299026  0.57991571    -0.20700
F2816       F  0.12262783  0.15356067  0.56326974    -0.23300
C2817       C  0.10605078  0.62506345  0.98987525    -0.06200
C2818       C  0.12669026  0.61528765  0.97861952    -0.00200
C2819       C  0.14675324  0.60965311  0.99206648    -0.08800
C2820       C  0.14489539  0.61050761  0.01619440    -0.06200
C2821       C  0.12384956  0.61662798  0.02737975    -0.00300
C2822       C  0.10426568  0.62626718  0.01399024    -0.08700
C2823       C  0.08135344  0.63700724  0.02484615     0.61700
H2824       H  0.09090057  0.63007419  0.97955504     0.12400
H2825       H  0.15980272  0.60392242  0.02657848     0.12400
C2826       C  0.16998144  0.60157678  0.98129757     0.61900
F2827       F  0.06689014  0.65638578  0.00927908    -0.23300
F2828       F  0.08453008  0.66501372  0.04300167    -0.20600
F2829       F  0.07068912  0.60004823  0.03257363    -0.20300
F2830       F  0.17677131  0.63762036  0.96937530    -0.20300
F2831       F  0.16883440  0.56675451  0.96664897    -0.20700
F2832       F  0.18663260  0.59332967  0.99753781    -0.23300
C2833       C  0.12513582  0.43942216  0.77038076    -0.06200
C2834       C  0.13311853  0.48022723  0.77682909    -0.00200
C2835       C  0.13901496  0.51042447  0.75935038    -0.08800
C2836       C  0.13712822  0.49808952  0.73622344    -0.06200
C2837       C  0.12966508  0.45719825  0.72999850    -0.00300
C2838       C  0.12335154  0.42728972  0.74716702    -0.08700
C2839       C  0.11427063  0.38315961  0.74091119     0.61700
H2840       H  0.12045444  0.41690143  0.78374348     0.12400
H2841       H  0.14194391  0.52010529  0.72265323     0.12400
C2842       C  0.14702984  0.55572450  0.76463747     0.61900
F2843       F  0.10846156  0.35942640  0.76014745    -0.23300
F2844       F  0.13069651  0.36086702  0.72885661    -0.20600
F2845       F  0.09491732  0.38715817  0.72747705    -0.20300
F2846       F  0.16870298  0.55469549  0.77407455    -0.20300
F2847       F  0.13192563  0.57494043  0.77966370    -0.20700
F2848       F  0.14818348  0.58090943  0.74511015    -0.23300
C2849       C  0.14753460  0.09838738  0.99038696    -0.06200
C2850       C  0.12677145  0.10664806  0.97916541    -0.00200
C2851       C  0.10744537  0.11823838  0.99255215    -0.08800
C2852       C  0.10897123  0.11677243  0.01666362    -0.06200
C2853       C  0.12924709  0.10541011  0.02799166    -0.00300
C2854       C  0.14920244  0.09758910  0.01458053    -0.08700
C2855       C  0.17204726  0.08724399  0.02549584     0.61700
H2856       H  0.16231939  0.09066732  0.97997678     0.12400
H2857       H  0.09389665  0.12321243  0.02693494     0.12400
C2858       C  0.08516251  0.13213563  0.98160547     0.61900
F2859       F  0.18862699  0.07766246  0.00930545    -0.23300
F2860       F  0.16978411  0.05232739  0.03990000    -0.20600
F2861       F  0.17964869  0.12236327  0.03779185    -0.20300
F2862       F  0.07342870  0.09677252  0.97330131    -0.20300
F2863       F  0.08962945  0.16038409  0.96383914    -0.20700
F2864       F  0.07114390  0.15269282  0.99722734    -0.23300
C2865       C  0.14747325  0.82467046  0.87085389    -0.06200
C2866       C  0.12602871  0.84468579  0.87204958    -0.00200
C2867       C  0.10596878  0.81933313  0.87434566    -0.08800
C2868       C  0.10817868  0.77453183  0.87577699    -0.06200
C2869       C  0.12966914  0.75435792  0.87488933    -0.00300
C2870       C  0.14966865  0.77983081  0.87184031    -0.08700
C2871       C  0.17315765  0.76005033  0.86917304     0.61700
H2872       H  0.16264466  0.84470509  0.86928636     0.12400
H2873       H  0.09296638  0.75469673  0.87757389     0.12400
C2874       C  0.08238813  0.83947270  0.87551119     0.61900
F2875       F  0.18951204  0.78996292  0.86251081    -0.23300
F2876       F  0.17249696  0.72820536  0.85266482    -0.20600
F2877       F  0.17989817  0.74289340  0.88986245    -0.20300
F2878       F  0.07714339  0.85703970  0.85441708    -0.20300
F2879       F  0.08196690  0.87124308  0.89208050    -0.20700
F2880       F  0.06553012  0.80973555  0.88096662    -0.23300
C2881       C  0.13841412  0.27623377  0.85913283    -0.06200
C2882       C  0.13341339  0.25368419  0.87942911    -0.00200
C2883       C  0.12577437  0.27653699  0.89901270    -0.08800
C2884       C  0.12382344  0.32139671  0.89760618    -0.06200
C2885       C  0.12862810  0.34378575  0.87725846    -0.00300
C2886       C  0.13627179  0.32103628  0.85771292    -0.08700
C2887       C  0.14253259  0.34404334  0.83561763     0.61700
H2888       H  0.14380886  0.25820582  0.84420708     0.12400
H2889       H  0.11833763  0.33956646  0.91244475     0.12400
C2890       C  0.11894874  0.25381404  0.92103921     0.61900
F2891       F  0.15210555  0.31662048  0.81964815    -0.23300
F2892       F  0.15830201  0.37631860  0.84006593    -0.20600
F2893       F  0.12308697  0.36153518  0.82609312    -0.20300
F2894       F  0.13768749  0.23322965  0.93014184    -0.20300
F2895       F  0.10178498  0.22415355  0.91660767    -0.20700
F2896       F  0.11086173  0.28211233  0.93741818    -0.23300
C2897       C  0.15159550  0.96042728  0.74010480    -0.06200
C2898       C  0.13041161  0.96512057  0.72866876    -0.00200
C2899       C  0.11078167  0.97521112  0.74211144    -0.08800
C2900       C  0.11324453  0.98050165  0.76601777    -0.06200
C2901       C  0.13440007  0.97610724  0.77717125    -0.00300
C2902       C  0.15389900  0.96492167  0.76404622    -0.08700
C2903       C  0.17686964  0.95574091  0.77519419     0.61700
H2904       H  0.16667153  0.95277944  0.73013061     0.12400
H2905       H  0.09852096  0.98919325  0.77627735     0.12400
C2906       C  0.08724157  0.98055126  0.73166215     0.61900
F2907       F  0.19181959  0.93608202  0.76010232    -0.23300
F2908       F  0.17375347  0.92860995  0.79371202    -0.20600
F2909       F  0.18703260  0.99346250  0.78252373    -0.20300
F2910       F  0.08080035  0.94323755  0.72052279    -0.20300
F2911       F  0.08780545  0.01451991  0.71650818    -0.20700
F2912       F  0.07064602  0.98919501  0.74797973    -0.23300
C2913       C  0.90055018  0.82267890  0.98880185    -0.06200
C2914       C  0.88115780  0.84073360  0.97852456    -0.00200
C2915       C  0.86266922  0.85404454  0.99256614    -0.08800
C2916       C  0.86413981  0.84798595  0.01644811    -0.06200
C2917       C  0.88401978  0.83208041  0.02680268    -0.00300
C2918       C  0.90252182  0.81876634  0.01278437    -0.08700
C2919       C  0.92466186  0.80218978  0.02293711     0.61700
H2920       H  0.91474185  0.81360983  0.97787112     0.12400
H2921       H  0.85037381  0.85884238  0.02744297     0.12400
C2922       C  0.84241162  0.87796617  0.98270331     0.61900
F2923       F  0.93783200  0.78163327  0.00657449    -0.23300
F2924       F  0.91997817  0.77323884  0.04030364    -0.20600
F2925       F  0.93740265  0.83599802  0.03164000    -0.20300
F2926       F  0.82966599  0.85094782  0.96888096    -0.20300
F2927       F  0.85015232  0.91251201  0.96994110    -0.20700
F2928       F  0.82810494  0.89351339  0.99969701    -0.23300
C2929       C  0.98706587  0.00569807  0.87677715    -0.06200
C2930       C  0.98082546  0.96290522  0.88073689    -0.00200
C2931       C  0.99812436  0.93152779  0.88313621    -0.08800
C2932       C  0.02119034  0.94468425  0.88222949    -0.06200
C2933       C  0.02728354  0.98784513  0.87966753    -0.00300
C2934       C  0.01011589  0.01885343  0.87631598    -0.08700
C2935       C  0.01613121  0.06544872  0.87186848     0.61700
H2936       H  0.97364035  0.02906686  0.87467073     0.12400
H2937       H  0.03472017  0.92152701  0.88439014     0.12400
C2938       C  0.99250510  0.88455374  0.88696825     0.61900
F2939       F  0.99710037  0.08881289  0.86564078    -0.23300
F2940       F  0.03196341  0.06835044  0.85422492    -0.20600
F2941       F  0.02525461  0.08361842  0.89148785    -0.20300
F2942       F  0.97625855  0.87070617  0.87133533    -0.20300
F2943       F  0.98424927  0.87904525  0.90899563    -0.20700
F2944       F  0.01162854  0.85904816  0.88443096    -0.23300
C2945       C  0.89843881  0.31639724  0.99174722    -0.06200
C2946       C  0.88119805  0.34065142  0.98124353    -0.00200
C2947       C  0.86381691  0.35892685  0.99510528    -0.08800
C2948       C  0.86446698  0.35273466  0.01901798    -0.06200
C2949       C  0.88222031  0.33023928  0.02959619    -0.00300
C2950       C  0.89930908  0.31103696  0.01582091    -0.08700
C2951       C  0.91844357  0.28545378  0.02658377     0.61700
H2952       H  0.91168202  0.30285414  0.98098686     0.12400
H2953       H  0.85173353  0.36767575  0.02986841     0.12400
C2954       C  0.84534339  0.38692135  0.98488095     0.61900
F2955       F  0.93075011  0.26307193  0.01025453    -0.23300
F2956       F  0.90937896  0.25622266  0.04203314    -0.20600
F2957       F  0.93340823  0.31264506  0.03794081    -0.20300
F2958       F  0.85525065  0.41896403  0.97172746    -0.20300
F2959       F  0.83213685  0.40626735  0.00164267    -0.20700
F2960       F  0.83101254  0.36224127  0.97133026    -0.23300
C2961       C  0.88234311  0.63076500  0.89798869    -0.06200
C2962       C  0.88233274  0.60857732  0.87695563    -0.00200
C2963       C  0.88088762  0.63197048  0.85618528    -0.08800
C2964       C  0.87943377  0.67686377  0.85729519    -0.06200
C2965       C  0.87914424  0.69893092  0.87831625    -0.00300
C2966       C  0.88098436  0.67570749  0.89905262    -0.08700
C2967       C  0.88207582  0.69829961  0.92212233     0.61700
H2968       H  0.88339479  0.61242823  0.91370817     0.12400
H2969       H  0.87850131  0.69532480  0.84160872     0.12400
C2970       C  0.88032817  0.60987466  0.83296303     0.61900
F2971       F  0.88689144  0.67027396  0.93979951    -0.23300
F2972       F  0.86123738  0.71709833  0.92677497    -0.20600
F2973       F  0.89908067  0.72946493  0.92179298    -0.20300
F2974       F  0.87574052  0.63823001  0.81535880    -0.20300
F2975       F  0.86345502  0.57850342  0.83276438    -0.20700
F2976       F  0.90133762  0.59156445  0.82857319    -0.23300
C2977       C  0.87606917  0.17752057  0.85819487    -0.06200
C2978       C  0.87848235  0.19876478  0.87934643    -0.00200
C2979       C  0.88325232  0.17462662  0.89929464    -0.08800
C2980       C  0.88410593  0.12963744  0.89752465    -0.06200
C2981       C  0.88158388  0.10832252  0.87635980    -0.00300
C2982       C  0.87767336  0.13265873  0.85624905    -0.08700
C2983       C  0.87463114  0.11159271  0.83292197     0.61700
H2984       H  0.87306553  0.19668171  0.84304041     0.12400
H2985       H  0.88718280  0.11060507  0.91271436     0.12400
C2986       C  0.88889217  0.19639811  0.92195007     0.61900
F2987       F  0.86943119  0.14114422  0.81606904    -0.23300
F2988       F  0.85696932  0.08181970  0.83383386    -0.20600
F2989       F  0.89464460  0.09146657  0.82652429    -0.20300
F2990       F  0.87011172  0.21858272  0.92993426    -0.20300
F2991       F  0.90704694  0.22461472  0.91884245    -0.20700
F2992       F  0.89509058  0.16724626  0.93863991    -0.23300
C2993       C  0.99570865  0.43506900  0.88329660    -0.06200
C2994       C  0.98029339  0.46921407  0.88347888    -0.00200
C2995       C  0.98861289  0.51185879  0.88387952    -0.08800
C2996       C  0.01238678  0.51892748  0.88276546    -0.06200
C2997       C  0.02783548  0.48480196  0.88231131    -0.00300
C2998       C  0.01952136  0.44210611  0.88310756    -0.08700
C2999       C  0.03561570  0.40437288  0.88499566     0.61700
H3000       H  0.98886469  0.40271483  0.88356839     0.12400
H3001       H  0.01919602  0.55130986  0.88276896     0.12400
C3002       C  0.97261122  0.54939802  0.88717106     0.61900
F3003       F  0.02380013  0.36613697  0.88798052    -0.23300
F3004       F  0.04993967  0.41008676  0.90365305    -0.20600
F3005       F  0.04864663  0.40095691  0.86528287    -0.20300
F3006       F  0.96023696  0.54375103  0.90723003    -0.20300
F3007       F  0.95765619  0.55220340  0.86890573    -0.20700
F3008       F  0.98449158  0.58785444  0.88881894    -0.23300
C3009       C  0.90162534  0.63443616  0.49038803    -0.06200
C3010       C  0.88102146  0.62456639  0.47894262    -0.00200
C3011       C  0.86091066  0.61788290  0.49241290    -0.08800
C3012       C  0.86281971  0.61610274  0.51653337    -0.06200
C3013       C  0.88384616  0.62182993  0.52774642    -0.00300
C3014       C  0.90331392  0.63403584  0.51454215    -0.08700
C3015       C  0.92610739  0.64528036  0.52558400     0.61700
H3016       H  0.91684919  0.64063675  0.48020598     0.12400
H3017       H  0.84793220  0.60820011  0.52685593     0.12400
C3018       C  0.83750345  0.61192444  0.48167210     0.61900
F3019       F  0.93974731  0.66947543  0.51097343    -0.23300
F3020       F  0.93762228  0.60814493  0.53088147    -0.20600
F3021       F  0.92276269  0.66904231  0.54535278    -0.20300
F3022       F  0.83741762  0.57679028  0.46721726    -0.20300
F3023       F  0.83217556  0.64846766  0.46959084    -0.20700
F3024       F  0.82050579  0.60559715  0.49795545    -0.23300
C3025       C  0.98451800  0.44392607  0.62138251    -0.06200
C3026       C  0.97988092  0.48772200  0.62328550    -0.00200
C3027       C  0.99805810  0.51739091  0.62650626    -0.08800
C3028       C  0.02064037  0.50220931  0.62635476    -0.06200
C3029       C  0.02538470  0.45857010  0.62350736    -0.00300
C3030       C  0.00707838  0.42861996  0.62161883    -0.08700
C3031       C  0.01124986  0.38071945  0.62082950     0.61700
H3032       H  0.97024267  0.42177902  0.61958269     0.12400
H3033       H  0.03486257  0.52441719  0.62833567     0.12400
C3034       C  0.99358521  0.56450966  0.63093056     0.61900
F3035       F  0.99103770  0.35736807  0.62237170    -0.23300
F3036       F  0.02503077  0.36903524  0.63901954    -0.20600
F3037       F  0.02179952  0.36991240  0.60042023    -0.20300
F3038       F  0.97879483  0.56884680  0.64936041    -0.20300
F3039       F  0.98394595  0.58289854  0.61174940    -0.20700
F3040       F  0.01354954  0.58682563  0.63597902    -0.23300
C3041       C  0.89282823  0.46449903  0.76694773    -0.06200
C3042       C  0.87284913  0.47401839  0.77914826    -0.00200
C3043       C  0.85388943  0.49096918  0.76722405    -0.08800
C3044       C  0.85557956  0.49669095  0.74325759    -0.06200
C3045       C  0.87553710  0.48636706  0.73058684    -0.00300
C3046       C  0.89469443  0.47033130  0.74303026    -0.08700
C3047       C  0.91726545  0.45953644  0.73168596     0.61700
H3048       H  0.90703924  0.45141141  0.77647519     0.12400
H3049       H  0.84091905  0.50922727  0.73425707     0.12400
C3050       C  0.83210009  0.50388431  0.77969692     0.61900
F3051       F  0.93338958  0.44517714  0.74720481    -0.23300
F3052       F  0.92620631  0.49578272  0.72132220    -0.20600
F3053       F  0.91378885  0.42729244  0.71581503    -0.20300
F3054       F  0.83746574  0.52898204  0.79854274    -0.20300
F3055       F  0.82027866  0.46777611  0.78685505    -0.20700
F3056       F  0.81767929  0.52724072  0.76575187    -0.23300
C3057       C  0.89584544  0.13429892  0.48849158    -0.06200
C3058       C  0.87605861  0.11774131  0.47784762    -0.00200
C3059       C  0.85729684  0.10434224  0.49175779    -0.08800
C3060       C  0.85974500  0.10538367  0.51576918    -0.06200
C3061       C  0.88020691  0.11863008  0.52626735    -0.00300
C3062       C  0.89819844  0.13548095  0.51251479    -0.08700
C3063       C  0.91979028  0.15469499  0.52293756     0.61700
H3064       H  0.90999164  0.14470686  0.47772899     0.12400
H3065       H  0.84601747  0.09346107  0.52660881     0.12400
C3066       C  0.83515197  0.08706112  0.48161549     0.61900
F3067       F  0.93206048  0.17849793  0.50699310    -0.23300
F3068       F  0.93379149  0.12255152  0.53089401    -0.20600
F3069       F  0.91413749  0.18165333  0.54089409    -0.20300
F3070       F  0.83960284  0.05276924  0.46735151    -0.20300
F3071       F  0.82458405  0.11905544  0.46936589    -0.20700
F3072       F  0.81998863  0.07309289  0.49838587    -0.23300
C3073       C  0.90127484  0.78112596  0.62626728    -0.06200
C3074       C  0.87993500  0.76004842  0.62822718    -0.00200
C3075       C  0.85988820  0.78455383  0.63152359    -0.08800
C3076       C  0.86193185  0.82948443  0.63214600    -0.06200
C3077       C  0.88321949  0.85050455  0.62993565    -0.00300
C3078       C  0.90330969  0.82606947  0.62694426    -0.08700
C3079       C  0.92662776  0.84724786  0.62363015     0.61700
H3080       H  0.91645293  0.76188495  0.62398504     0.12400
H3081       H  0.84675689  0.84882343  0.63421305     0.12400
C3082       C  0.83651564  0.76361840  0.63480110     0.61900
F3083       F  0.94354782  0.81757742  0.61920760    -0.23300
F3084       F  0.93272498  0.86947382  0.64324143    -0.20600
F3085       F  0.92588977  0.87526996  0.60528766    -0.20300
F3086       F  0.83741810  0.73361223  0.65221421    -0.20300
F3087       F  0.82981430  0.74381688  0.61466370    -0.20700
F3088       F  0.81994554  0.79318557  0.64058675    -0.23300
C3089       C  0.89725246  0.28026248  0.62941946    -0.06200
C3090       C  0.87608319  0.25959127  0.62529680    -0.00200
C3091       C  0.85626549  0.28484546  0.62232971    -0.08800
C3092       C  0.85839733  0.32970397  0.62420811    -0.06200
C3093       C  0.87951089  0.35024880  0.62877439    -0.00300
C3094       C  0.89943736  0.32504287  0.63109251    -0.08700
C3095       C  0.92304914  0.34483646  0.63472814     0.61700
H3096       H  0.91233953  0.26073104  0.63141631     0.12400
H3097       H  0.84337510  0.34935778  0.62205506     0.12400
C3098       C  0.83291905  0.26499350  0.61753026     0.61900
F3099       F  0.94021834  0.31460846  0.63356725    -0.23300
F3100       F  0.92409461  0.36369012  0.65614795    -0.20600
F3101       F  0.92747219  0.37525004  0.61802489    -0.20300
F3102       F  0.82771019  0.23451176  0.63397030    -0.20300
F3103       F  0.83302962  0.24615311  0.59606144    -0.20700
F3104       F  0.81569774  0.29517121  0.61783951    -0.23300
C3105       C  0.98387057  0.94717166  0.62119777    -0.06200
C3106       C  0.98041129  0.99133635  0.61926427    -0.00200
C3107       C  0.99936648  0.01981046  0.61822552    -0.08800
C3108       C  0.02146238  0.00265661  0.61907142    -0.06200
C3109       C  0.02489229  0.95844882  0.62078831    -0.00300
C3110       C  0.00592619  0.93000623  0.62198767    -0.08700
C3111       C  0.00887116  0.88208166  0.62491803     0.61700
H3112       H  0.96901552  0.92617446  0.62210873     0.12400
H3113       H  0.03633107  0.02362902  0.61829021     0.12400
C3114       C  0.99632024  0.06791517  0.61697254     0.61900
F3115       F  0.98810399  0.86123118  0.62826399    -0.23300
F3116       F  0.02251628  0.87415281  0.64378269    -0.20600
F3117       F  0.01892697  0.86500586  0.60553032    -0.20300
F3118       F  0.98297765  0.08149499  0.63517175    -0.20300
F3119       F  0.98583566  0.07853294  0.59657326    -0.20700
F3120       F  0.01707106  0.08966746  0.61793428    -0.23300
C3121       C  0.85629644  0.98547213  0.73957429    -0.06200
C3122       C  0.87779025  0.98708357  0.72854056    -0.00200
C3123       C  0.89781440  0.98280443  0.74222759    -0.08800
C3124       C  0.89541351  0.97662071  0.76607748    -0.06200
C3125       C  0.87391409  0.97400731  0.77685673    -0.00300
C3126       C  0.85389473  0.97934034  0.76336119    -0.08700
C3127       C  0.82994049  0.97941858  0.77369186     0.61700
H3128       H  0.84100831  0.98852680  0.72925440     0.12400
H3129       H  0.91052608  0.97217325  0.77649782     0.12400
C3130       C  0.92168351  0.98357423  0.73204240     0.61900
F3131       F  0.81385971  0.99484674  0.75842798    -0.23300
F3132       F  0.82948575  0.00543573  0.79290094    -0.20600
F3133       F  0.82344954  0.93819847  0.77958737    -0.20300
F3134       F  0.92522387  0.02109237  0.71990367    -0.20300
F3135       F  0.92404918  0.94855107  0.71784435    -0.20700
F3136       F  0.93855450  0.98112164  0.74864502    -0.23300
C3137       C  0.39947972  0.85952191  0.51745108    -0.06200
C3138       C  0.37970848  0.84084026  0.52722430    -0.00200
C3139       C  0.36118962  0.82878285  0.51278489    -0.08800
C3140       C  0.36339024  0.83509377  0.48905800    -0.06200
C3141       C  0.38354475  0.85153539  0.47924206    -0.00300
C3142       C  0.40177893  0.86498470  0.49356769    -0.08700
C3143       C  0.42341569  0.88514839  0.48371979     0.61700
H3144       H  0.41348681  0.86857001  0.52867146     0.12400
H3145       H  0.34969951  0.82490465  0.47772209     0.12400
C3146       C  0.33950300  0.80771613  0.52197141     0.61900
F3147       F  0.43708272  0.90284548  0.50070833    -0.23300
F3148       F  0.41767910  0.91738999  0.46858723    -0.20600
F3149       F  0.43611422  0.85463883  0.47230945    -0.20300
F3150       F  0.32733392  0.83733911  0.53446222    -0.20300
F3151       F  0.34485027  0.77316403  0.53571865    -0.20700
F3152       F  0.32543108  0.79287240  0.50453902    -0.23300
C3153       C  0.23497493  0.79976068  0.62640683    -0.06200
C3154       C  0.22658441  0.83976732  0.63315008    -0.00200
C3155       C  0.24242868  0.87374352  0.63788658    -0.08800
C3156       C  0.26602115  0.86530929  0.63705606    -0.06200
C3157       C  0.27420070  0.82485838  0.63136525    -0.00300
C3158       C  0.25862531  0.79175457  0.62522663    -0.08700
C3159       C  0.26695440  0.74873898  0.61664025     0.61700
H3160       H  0.22278688  0.77461781  0.62221322     0.12400
H3161       H  0.27838932  0.89013761  0.64129906     0.12400
C3162       C  0.23486292  0.91897573  0.64352241     0.61900
F3163       F  0.24894100  0.72122736  0.61150613    -0.23300
F3164       F  0.28029164  0.72938904  0.63311676    -0.20600
F3165       F  0.27978711  0.75469838  0.59690762    -0.20300
F3166       F  0.22497327  0.91974333  0.66505780    -0.20300
F3167       F  0.21938343  0.93291281  0.62730010    -0.20700
F3168       F  0.25309079  0.94768514  0.64368443    -0.23300
C3169       C  0.39524604  0.36750011  0.51502326    -0.06200
C3170       C  0.37694270  0.34451291  0.52493300    -0.00200
C3171       C  0.35829687  0.33130561  0.51090161    -0.08800
C3172       C  0.35945126  0.33923038  0.48717121    -0.06200
C3173       C  0.37862805  0.35893774  0.47703521    -0.00300
C3174       C  0.39639522  0.37511723  0.49120565    -0.08700
C3175       C  0.41647601  0.40010383  0.48124522     0.61700
H3176       H  0.40910010  0.37817473  0.52603201     0.12400
H3177       H  0.34600126  0.32724865  0.47604205     0.12400
C3178       C  0.33788016  0.30663083  0.52051596     0.61900
F3179       F  0.42920943  0.42012986  0.49823020    -0.23300
F3180       F  0.40854653  0.43132169  0.46652055    -0.20600
F3181       F  0.43079488  0.37292555  0.46936777    -0.20300
F3182       F  0.32574293  0.33244740  0.53534126    -0.20300
F3183       F  0.34529256  0.27073332  0.53208913    -0.20700
F3184       F  0.32299913  0.29318704  0.50343074    -0.23300
C3185       C  0.37070148  0.50064255  0.64719233    -0.06200
C3186       C  0.37717910  0.47792147  0.62742947    -0.00200
C3187       C  0.38658694  0.50041265  0.60850343    -0.08800
C3188       C  0.38791145  0.54546144  0.60946088    -0.06200
C3189       C  0.38099947  0.56831846  0.62902853    -0.00300
C3190       C  0.37241745  0.54568588  0.64831125    -0.08700
C3191       C  0.36445158  0.56927492  0.66962305     0.61700
H3192       H  0.36416361  0.48272089  0.66173618     0.12400
H3193       H  0.39438271  0.56332688  0.59486821     0.12400
C3194       C  0.39587774  0.47668931  0.58775487     0.61900
F3195       F  0.35629564  0.54150990  0.68629554    -0.23300
F3196       F  0.34702763  0.59699717  0.66391219    -0.20600
F3197       F  0.38250406  0.59235510  0.67891763    -0.20300
F3198       F  0.37823054  0.45541828  0.57664760    -0.20300
F3199       F  0.41204998  0.44732770  0.59468969    -0.20700
F3200       F  0.40626824  0.50419843  0.57222864    -0.23300
C3201       C  0.36675551  0.00121359  0.64382542    -0.06200
C3202       C  0.37244175  0.97821886  0.62387685    -0.00200
C3203       C  0.37894821  0.00086976  0.60376366    -0.08800
C3204       C  0.38023330  0.04590084  0.60464149    -0.06200
C3205       C  0.37497346  0.06870865  0.62469126    -0.00300
C3206       C  0.36720499  0.04632590  0.64436002    -0.08700
C3207       C  0.35799269  0.07009504  0.66514331     0.61700
H3208       H  0.36154303  0.98341816  0.65893100     0.12400
H3209       H  0.38541012  0.06389228  0.58959205     0.12400
C3210       C  0.38514091  0.97783844  0.58165832     0.61900
F3211       F  0.34984569  0.04230638  0.68181462    -0.23300
F3212       F  0.34008628  0.09593951  0.65844074    -0.20600
F3213       F  0.37500676  0.09522384  0.67485205    -0.20300
F3214       F  0.36631357  0.95545284  0.57349816    -0.20300
F3215       F  0.40283053  0.94969266  0.58562027    -0.20700
F3216       F  0.39215533  0.00612606  0.56470059    -0.23300
C3217       C  0.26662473  0.36546647  0.63866091    -0.06200
C3218       C  0.27522711  0.32682834  0.63061644    -0.00200
C3219       C  0.26005201  0.29332021  0.62405662    -0.08800
C3220       C  0.23632611  0.30026103  0.62546546    -0.06200
C3221       C  0.22752564  0.33870401  0.63404433    -0.00300
C3222       C  0.24298442  0.37195852  0.64100745    -0.08700
C3223       C  0.23495604  0.41416873  0.65104208     0.61700
H3224       H  0.27875263  0.39002078  0.64392149     0.12400
H3225       H  0.22439916  0.27533848  0.62026879     0.12400
C3226       C  0.26886063  0.25064636  0.61537392     0.61900
F3227       F  0.25286630  0.44287056  0.65437682    -0.23300
F3228       F  0.22491216  0.40693489  0.67219921    -0.20600
F3229       F  0.21948319  0.43307015  0.63636444    -0.20300
F3230       F  0.28192274  0.23124400  0.63207699    -0.20300
F3231       F  0.28209182  0.25716401  0.59597235    -0.20700
F3232       F  0.25115984  0.22279546  0.60971768    -0.23300
C3233       C  0.40481588  0.56466563  0.98972803    -0.06200
C3234       C  0.38367285  0.56952025  0.97845510    -0.00200
C3235       C  0.36334991  0.57036813  0.99196681    -0.08800
C3236       C  0.36523428  0.57056560  0.01608446    -0.06200
C3237       C  0.38653306  0.56970907  0.02721899    -0.00300
C3238       C  0.40662566  0.56411902  0.01381531    -0.08700
C3239       C  0.43009716  0.55863168  0.02455790     0.61700
H3240       H  0.42028146  0.56290607  0.97947391     0.12400
H3241       H  0.34996032  0.57374793  0.02648657     0.12400
C3242       C  0.33973387  0.57217413  0.98130351     0.61900
F3243       F  0.44538586  0.54052475  0.00924923    -0.23300
F3244       F  0.42862544  0.53188832  0.04342684    -0.20600
F3245       F  0.43877267  0.59808629  0.03116497    -0.20300
F3246       F  0.33608126  0.53541225  0.96862731    -0.20300
F3247       F  0.33800031  0.60788461  0.96742611    -0.20700
F3248       F  0.32253575  0.57429952  0.99763983    -0.23300
C3249       C  0.26757998  0.63213722  0.87553708    -0.06200
C3250       C  0.27871950  0.59239879  0.87403198    -0.00200
C3251       C  0.26574569  0.55437411  0.87202952    -0.08800
C3252       C  0.24175729  0.55725689  0.87220124    -0.06200
C3253       C  0.23058311  0.59696480  0.87359350    -0.00300
C3254       C  0.24356013  0.63511242  0.87506174    -0.08700
C3255       C  0.23207457  0.67845119  0.87494859     0.61700
H3256       H  0.27795085  0.66102220  0.87658055     0.12400
H3257       H  0.23143524  0.52838354  0.87070944     0.12400
C3258       C  0.27723034  0.51155175  0.86838758     0.61900
F3259       F  0.24785039  0.71171832  0.87386337    -0.23300
F3260       F  0.21933788  0.68330095  0.89474956    -0.20600
F3261       F  0.21779160  0.68148447  0.85610861    -0.20300
F3262       F  0.29080983  0.50210928  0.88703769    -0.20300
F3263       F  0.29071015  0.51328506  0.84884204    -0.20700
F3264       F  0.26142723  0.47862944  0.86573252    -0.23300
C3265       C  0.39223479  0.72525529  0.73926517    -0.06200
C3266       C  0.37352666  0.70707774  0.72770268    -0.00200
C3267       C  0.35641680  0.68522895  0.74024376    -0.08800
C3268       C  0.35825039  0.68369824  0.76427818    -0.06200
C3269       C  0.37688103  0.70242610  0.77639084    -0.00300
C3270       C  0.39443983  0.72319988  0.76332428    -0.08700
C3271       C  0.41556069  0.74302841  0.77415898     0.61700
H3272       H  0.40511857  0.74173983  0.72910121     0.12400
H3273       H  0.34487866  0.66712796  0.77368011     0.12400
C3274       C  0.33676777  0.66221029  0.72822308     0.61900
F3275       F  0.42933379  0.76396004  0.75828674    -0.23300
F3276       F  0.42848225  0.71120847  0.78403543    -0.20600
F3277       F  0.40911550  0.77276674  0.79041340    -0.20300
F3278       F  0.34521395  0.63728337  0.71054467    -0.20300
F3279       F  0.32163703  0.69166843  0.71940885    -0.20700
F3280       F  0.32477148  0.63553372  0.74301383    -0.23300
C3281       C  0.36504014  0.08198371  0.98924942    -0.06200
C3282       C  0.38574133  0.07301052  0.97810574    -0.00200
C3283       C  0.40441294  0.05785499  0.99117974    -0.08800
C3284       C  0.40251857  0.05705993  0.01529865    -0.06200
C3285       C  0.38232139  0.06924058  0.02668739    -0.00300
C3286       C  0.36281857  0.07997089  0.01329665    -0.08700
C3287       C  0.33975248  0.08980779  0.02400273     0.61700
H3288       H  0.35071914  0.09219658  0.97889455     0.12400
H3289       H  0.41720503  0.04820773  0.02552385     0.12400
C3290       C  0.42619346  0.04226182  0.97981424     0.61900
F3291       F  0.32367082  0.10150791  0.00780896    -0.23300
F3292       F  0.34175538  0.12304797  0.03955740    -0.20600
F3293       F  0.33160615  0.05351264  0.03483942    -0.20300
F3294       F  0.43909814  0.07680513  0.97228966    -0.20300
F3295       F  0.42083239  0.01611208  0.96136530    -0.20700
F3296       F  0.43938173  0.01876287  0.99487009    -0.23300
C3297       C  0.38189178  0.86349909  0.89653864    -0.06200
C3298       C  0.38121993  0.84159427  0.87543018    -0.00200
C3299       C  0.37831054  0.86517458  0.85487726    -0.08800
C3300       C  0.37658686  0.91005959  0.85630041    -0.06200
C3301       C  0.37750136  0.93183529  0.87742361    -0.00300
C3302       C  0.38029302  0.90830196  0.89794277    -0.08700
C3303       C  0.38270111  0.93037303  0.92110112     0.61700
H3304       H  0.38401943  0.84501906  0.91208774     0.12400
H3305       H  0.37480083  0.92878031  0.84078332     0.12400
C3306       C  0.37666225  0.84334698  0.83163040     0.61900
F3307       F  0.38739285  0.90161994  0.93848330    -0.23300
F3308       F  0.36257710  0.95095841  0.92667426    -0.20600
F3309       F  0.40046744  0.95995890  0.92028993    -0.20300
F3310       F  0.35982785  0.81189944  0.83213752    -0.20300
F3311       F  0.39745213  0.82516036  0.82618711    -0.20700
F3312       F  0.37122641  0.87188791  0.81435326    -0.23300
C3313       C  0.38476142  0.36286753  0.89483752    -0.06200
C3314       C  0.38485498  0.34102015  0.87370891    -0.00200
C3315       C  0.38209685  0.36467375  0.85319526    -0.08800
C3316       C  0.37964056  0.40953943  0.85465064    -0.06200
C3317       C  0.37931136  0.43131938  0.87586109    -0.00300
C3318       C  0.38199285  0.40752308  0.89636408    -0.08700
C3319       C  0.38226654  0.42887190  0.91980754     0.61700
H3320       H  0.38666548  0.34427843  0.91037761     0.12400
H3321       H  0.37794237  0.42815484  0.83908991     0.12400
C3322       C  0.38120274  0.34264386  0.82997399     0.61900
F3323       F  0.38712526  0.40009901  0.93714808    -0.23300
F3324       F  0.36102782  0.44616383  0.92433967    -0.20600
F3325       F  0.39877063  0.46090848  0.92039491    -0.20300
F3326       F  0.36471276  0.31052825  0.83019645    -0.20300
F3327       F  0.40231171  0.32518176  0.82505499    -0.20700
F3328       F  0.37582688  0.37081000  0.81252613    -0.23300
C3329       C  0.27006683  0.12416960  0.88146987    -0.06200
C3330       C  0.28085650  0.08630094  0.87448444    -0.00200
C3331       C  0.26757596  0.05042410  0.86816654    -0.08800
C3332       C  0.24359735  0.05372353  0.86885790    -0.06200
C3333       C  0.23256586  0.09186343  0.87546943    -0.00300
C3334       C  0.24602424  0.12765452  0.88217943    -0.08700
C3335       C  0.23526726  0.16947168  0.88949695     0.61700
H3336       H  0.28076629  0.15133333  0.88612210     0.12400
H3337       H  0.23319166  0.02631070  0.86399649     0.12400
C3338       C  0.27881566  0.00940429  0.86029724     0.61900
F3339       F  0.25150999  0.20152430  0.89258013    -0.23300
F3340       F  0.22394709  0.16368480  0.91008012    -0.20600
F3341       F  0.21996869  0.18300849  0.87299337    -0.20300
F3342       F  0.29266940  0.99400833  0.87757841    -0.20300
F3343       F  0.29201809  0.01743251  0.84101216    -0.20700
F3344       F  0.26283429  0.97799293  0.85485869    -0.23300
C3345       C  0.39394118  0.19579742  0.73513529    -0.06200
C3346       C  0.37227503  0.20217991  0.72521291    -0.00200
C3347       C  0.35279020  0.20358898  0.74002714    -0.08800
C3348       C  0.35608518  0.20086743  0.76391087    -0.06200
C3349       C  0.37778357  0.19583485  0.77391225    -0.00300
C3350       C  0.39708068  0.19232134  0.75910573    -0.08700
C3351       C  0.42094338  0.18471782  0.76826840     0.61700
H3352       H  0.40873623  0.19479783  0.72393357     0.12400
H3353       H  0.34138885  0.20298831  0.77520267     0.12400
C3354       C  0.32836394  0.20753051  0.73121150     0.61900
F3355       F  0.43665077  0.17756087  0.75086731    -0.23300
F3356       F  0.42085448  0.14922266  0.78242334    -0.20600
F3357       F  0.42812289  0.22040708  0.78031984    -0.20300
F3358       F  0.32450269  0.17820682  0.71381097    -0.20300
F3359       F  0.32469317  0.24858107  0.72328840    -0.20700
F3360       F  0.31231749  0.19948475  0.74824493    -0.23300
C3361       C  0.60792744  0.56348865  0.51441210    -0.06200
C3362       C  0.62667541  0.58384160  0.52512971    -0.00200
C3363       C  0.64448131  0.60116240  0.51125496    -0.08800
C3364       C  0.64273681  0.59777672  0.48717511    -0.06200
C3365       C  0.62355199  0.57916297  0.47644802    -0.00300
C3366       C  0.60592292  0.56105470  0.49027253    -0.08700
C3367       C  0.58510975  0.53925024  0.47969004     0.61700
H3368       H  0.59434458  0.55084508  0.52520927     0.12400
H3369       H  0.65586172  0.61202934  0.47637973     0.12400
C3370       C  0.66457504  0.62548687  0.52165076     0.61900
F3371       F  0.57142598  0.51971628  0.49613386    -0.23300
F3372       F  0.59211045  0.50817006  0.46434242    -0.20600
F3373       F  0.57188458  0.56889988  0.46834723    -0.20300
F3374       F  0.67733943  0.59821151  0.53502082    -0.20300
F3375       F  0.65668339  0.65888526  0.53502193    -0.20700
F3376       F  0.67893406  0.64256242  0.50500520    -0.23300
C3377       C  0.74122190  0.60167996  0.65337759    -0.06200
C3378       C  0.73004765  0.59658801  0.63212681    -0.00200
C3379       C  0.74360997  0.59848776  0.61173569    -0.08800
C3380       C  0.76759646  0.60422635  0.61367604    -0.06200
C3381       C  0.77849645  0.60912134  0.63500966    -0.00300
C3382       C  0.76484320  0.60973663  0.65516488    -0.08700
C3383       C  0.77465834  0.61953686  0.67874979     0.61700
H3384       H  0.73116109  0.60037234  0.66900721     0.12400
H3385       H  0.77820860  0.60338806  0.59842793     0.12400
C3386       C  0.73328785  0.59395285  0.58797306     0.61900
F3387       F  0.75810104  0.63641222  0.69312549    -0.23300
F3388       F  0.79222511  0.64945735  0.67723549    -0.20600
F3389       F  0.78275104  0.58236203  0.68854575    -0.20300
F3390       F  0.71683359  0.62485889  0.58456958    -0.20300
F3391       F  0.72365095  0.55363227  0.58577693    -0.20700
F3392       F  0.74955500  0.59865031  0.57079769    -0.23300
C3393       C  0.51934916  0.74414951  0.62326621    -0.06200
C3394       C  0.52601658  0.70115813  0.62288462    -0.00200
C3395       C  0.50909830  0.66836393  0.62422617    -0.08800
C3396       C  0.48588730  0.67992716  0.62464203    -0.06200
C3397       C  0.47918205  0.72284968  0.62404581    -0.00300
C3398       C  0.49611908  0.75571962  0.62406032    -0.08700
C3399       C  0.48981217  0.80261377  0.62610967     0.61700
H3400       H  0.53257124  0.76869957  0.62277370     0.12400
H3401       H  0.47267219  0.65536335  0.62507100     0.12400
C3402       C  0.51542051  0.62146936  0.62589440     0.61900
F3403       F  0.50890265  0.82843179  0.62958782    -0.23300
F3404       F  0.47519408  0.80812588  0.64457029    -0.20600
F3405       F  0.47918864  0.81613895  0.60630137    -0.20300
F3406       F  0.53077467  0.61578551  0.64364178    -0.20300
F3407       F  0.52516471  0.60813300  0.60552740    -0.20700
F3408       F  0.49646593  0.59568110  0.63017171    -0.23300
C3409       C  0.64256224  0.08075562  0.51557544    -0.06200
C3410       C  0.62157939  0.07470878  0.52701780    -0.00200
C3411       C  0.60213852  0.06163864  0.51409349    -0.08800
C3412       C  0.60386449  0.06025516  0.48995557    -0.06200
C3413       C  0.62436129  0.07047729  0.47833043    -0.00300
C3414       C  0.64440066  0.07871767  0.49148488    -0.08700
C3415       C  0.66756489  0.08661568  0.48037298     0.61700
H3416       H  0.65746277  0.08933753  0.52566625     0.12400
H3417       H  0.58874229  0.05314236  0.47985295     0.12400
C3418       C  0.57955010  0.04955185  0.52544990     0.61900
F3419       F  0.68444152  0.09569167  0.49635225    -0.23300
F3420       F  0.66649139  0.12089212  0.46544251    -0.20600
F3421       F  0.67397259  0.05019701  0.46865748    -0.20300
F3422       F  0.56848325  0.08599818  0.53281878    -0.20300
F3423       F  0.58339424  0.02288798  0.54396171    -0.20700
F3424       F  0.56514635  0.02803820  0.51041022    -0.23300
C3425       C  0.63464070  0.91904612  0.64695475    -0.06200
C3426       C  0.63347287  0.94089181  0.62594629    -0.00200
C3427       C  0.63091070  0.91722809  0.60532899    -0.08800
C3428       C  0.62897438  0.87233036  0.60668220    -0.06200
C3429       C  0.62957746  0.85051270  0.62777791    -0.00300
C3430       C  0.63307008  0.87414918  0.64827715    -0.08700
C3431       C  0.63576216  0.85240533  0.67138727     0.61700
H3432       H  0.63665160  0.93773405  0.66250378     0.12400
H3433       H  0.62683682  0.85369282  0.59113472     0.12400
C3434       C  0.62957872  0.93909230  0.58208960     0.61900
F3435       F  0.64222729  0.88116702  0.68834474    -0.23300
F3436       F  0.65243836  0.82133371  0.67002054    -0.20600
F3437       F  0.61520754  0.83378053  0.67789819    -0.20300
F3438       F  0.65018260  0.95936327  0.57727492    -0.20300
F3439       F  0.61219945  0.96888756  0.58219688    -0.20700
F3440       F  0.62517805  0.91020583  0.56456874    -0.23300
C3441       C  0.64508187  0.37034663  0.62922561    -0.06200
C3442       C  0.62365196  0.34955183  0.63078692    -0.00200
C3443       C  0.60353067  0.37442906  0.63202637    -0.08800
C3444       C  0.60563780  0.41935945  0.63071985    -0.06200
C3445       C  0.62706733  0.44020444  0.62862457    -0.00300
C3446       C  0.64722124  0.41527382  0.62853210    -0.08700
C3447       C  0.67091138  0.43570572  0.62833896     0.61700
H3448       H  0.66031682  0.35085112  0.62849232     0.12400
H3449       H  0.59037786  0.43877580  0.63123127     0.12400
C3450       C  0.57992485  0.35381717  0.63405564     0.61900
F3451       F  0.68789423  0.40600493  0.63233068    -0.23300
F3452       F  0.67244631  0.46665281  0.64529115    -0.20600
F3453       F  0.67504284  0.45416144  0.60719867    -0.20300
F3454       F  0.57819159  0.33165035  0.65451492    -0.20300
F3455       F  0.57634743  0.32592223  0.61592775    -0.20700
F3456       F  0.56266183  0.38388216  0.63376764    -0.23300
C3457       C  0.73919062  0.06467134  0.63785459    -0.06200
C3458       C  0.72931390  0.10004810  0.62751487    -0.00200
C3459       C  0.74318922  0.13288975  0.61804080    -0.08800
C3460       C  0.76706639  0.12995669  0.62020592    -0.06200
C3461       C  0.77720061  0.09527428  0.63147734    -0.00300
C3462       C  0.76300347  0.06103651  0.63971641    -0.08700
C3463       C  0.77247940  0.02013509  0.64994198     0.61700
H3464       H  0.72794552  0.04027046  0.64497586     0.12400
H3465       H  0.77798334  0.15523368  0.61349550     0.12400
C3466       C  0.73268992  0.17102673  0.60603106     0.61900
F3467       F  0.75569325  0.98891015  0.65265041    -0.23300
F3468       F  0.78166055  0.02853425  0.67134099    -0.20600
F3469       F  0.78902927  0.00355258  0.63555079    -0.20300
F3470       F  0.71992791  0.19437369  0.62154271    -0.20300
F3471       F  0.71865617  0.15694466  0.58841828    -0.20700
F3472       F  0.74920595  0.19795702  0.59670526    -0.23300
C3473       C  0.51833649  0.24222022  0.62177889    -0.06200
C3474       C  0.52503389  0.20020190  0.62620983    -0.00200
C3475       C  0.50829537  0.16809720  0.63035280    -0.08800
C3476       C  0.48505205  0.17887308  0.62863639    -0.06200
C3477       C  0.47821400  0.22043935  0.62278696    -0.00300
C3478       C  0.49510331  0.25310606  0.62000468    -0.08700
C3479       C  0.48884277  0.29935134  0.61556073     0.61700
H3480       H  0.53155830  0.26624270  0.61899652     0.12400
H3481       H  0.47199831  0.15447474  0.63123589     0.12400
C3482       C  0.51498649  0.12274628  0.63660052     0.61900
F3483       F  0.50765906  0.32647265  0.61728849    -0.23300
F3484       F  0.47272429  0.31257266  0.63142177    -0.20600
F3485       F  0.48014850  0.30319569  0.59367102    -0.20300
F3486       F  0.53090470  0.12351780  0.65415861    -0.20300
F3487       F  0.52431788  0.10271384  0.61766703    -0.20700
F3488       F  0.49631631  0.09873071  0.64391868    -0.23300
C3489       C  0.60858928  0.88104720  0.98872201    -0.06200
C3490       C  0.62620215  0.85809233  0.97799724    -0.00200
C3491       C  0.64361319  0.83959262  0.99157822    -0.08800
C3492       C  0.64236895  0.84372566  0.01555513    -0.06200
C3493       C  0.62405347  0.86442584  0.02638950    -0.00300
C3494       C  0.60722720  0.88471174  0.01282546    -0.08700
C3495       C  0.58824907  0.91068759  0.02365055     0.61700
H3496       H  0.59551421  0.89509208  0.97802117     0.12400
H3497       H  0.65507716  0.82839699  0.02619697     0.12400
C3498       C  0.66251206  0.81290802  0.98098339     0.61900
F3499       F  0.57526360  0.93139789  0.00727776    -0.23300
F3500       F  0.59767527  0.94140249  0.03798068    -0.20600
F3501       F  0.57380158  0.88433054  0.03616536    -0.20300
F3502       F  0.67645932  0.83854264  0.96754204    -0.20300
F3503       F  0.65297780  0.78072630  0.96767308    -0.20700
F3504       F  0.67611895  0.79390817  0.99743486    -0.23300
C3505       C  0.74131423  0.81438233  0.86981696    -0.06200
C3506       C  0.72970418  0.85321879  0.87324949    -0.00200
C3507       C  0.74241504  0.89116664  0.87746257    -0.08800
C3508       C  0.76650084  0.88896431  0.87725782    -0.06200
C3509       C  0.77792910  0.85018911  0.87339719    -0.00300
C3510       C  0.76531180  0.81222390  0.86995205    -0.08700
C3511       C  0.77729348  0.77004015  0.86610242     0.61700
H3512       H  0.73133427  0.78547287  0.86697272     0.12400
H3513       H  0.77671000  0.91768578  0.87990990     0.12400
C3514       C  0.73077130  0.93373037  0.88139308     0.61900
F3515       F  0.76187661  0.73660810  0.86303844    -0.23300
F3516       F  0.79071728  0.76085524  0.88493984    -0.20600
F3517       F  0.79104730  0.77279924  0.84679014    -0.20300
F3518       F  0.71856107  0.93237863  0.90170313    -0.20300
F3519       F  0.71602537  0.94217019  0.86345713    -0.20700
F3520       F  0.74644160  0.96717725  0.88284202    -0.23300
C3521       C  0.51308383  0.75555257  0.88425335    -0.06200
C3522       C  0.52929437  0.72270032  0.88321197    -0.00200
C3523       C  0.52189958  0.67941757  0.88300593    -0.08800
C3524       C  0.49824412  0.67054900  0.88358804    -0.06200
C3525       C  0.48202667  0.70341383  0.88410040    -0.00300
C3526       C  0.48942172  0.74672695  0.88459852    -0.08700
C3527       C  0.47253958  0.78337039  0.88631833     0.61700
H3528       H  0.51918901  0.78840427  0.88459680     0.12400
H3529       H  0.49215235  0.63768899  0.88323561     0.12400
C3530       C  0.53880312  0.64278106  0.88248494     0.61900
F3531       F  0.48353258  0.82229418  0.88979761    -0.23300
F3532       F  0.45775210  0.77649058  0.90455125    -0.20600
F3533       F  0.46004148  0.78635669  0.86629871    -0.20300
F3534       F  0.55505752  0.64825195  0.89949642    -0.20300
F3535       F  0.54957864  0.64153787  0.86136122    -0.20700
F3536       F  0.52804312  0.60364625  0.88603836    -0.23300
C3537       C  0.61380511  0.72632269  0.76508933    -0.06200
C3538       C  0.63516826  0.72666420  0.77609676    -0.00200
C3539       C  0.65528413  0.72170091  0.76261182    -0.08800
C3540       C  0.65314246  0.71789406  0.73863994    -0.06200
C3541       C  0.63176253  0.71771259  0.72743484    -0.00300
C3542       C  0.61161876  0.72201521  0.74108112    -0.08700
C3543       C  0.58780505  0.72252479  0.73076433     0.61700
H3544       H  0.59865600  0.73085712  0.77552434     0.12400
H3545       H  0.66851241  0.71492840  0.72835718     0.12400
C3546       C  0.67905274  0.71960048  0.77318588     0.61900
F3547       F  0.57083535  0.72394018  0.74738297    -0.23300
F3548       F  0.58411327  0.68597863  0.71782047    -0.20600
F3549       F  0.58566718  0.75854345  0.71725889    -0.20300
F3550       F  0.67886472  0.69208905  0.79177497    -0.20300
F3551       F  0.68598653  0.75998254  0.78015634    -0.20700
F3552       F  0.69515584  0.70466760  0.75770782    -0.23300
C3553       C  0.60970852  0.37291102  0.98851163    -0.06200
C3554       C  0.62967294  0.35700064  0.97816028    -0.00200
C3555       C  0.64865772  0.34628061  0.99212123    -0.08800
C3556       C  0.64611369  0.34842171  0.01611369    -0.06200
C3557       C  0.62551356  0.36123924  0.02642066    -0.00300
C3558       C  0.60744511  0.37599945  0.01248671    -0.08700
C3559       C  0.58620533  0.39601293  0.02282214     0.61700
H3560       H  0.59553739  0.38187362  0.97760155     0.12400
H3561       H  0.65989187  0.33789228  0.02710192     0.12400
C3562       C  0.67108908  0.33069270  0.98202243     0.61900
F3563       F  0.57336346  0.41678167  0.00636969    -0.23300
F3564       F  0.59257995  0.42587580  0.03922156    -0.20600
F3565       F  0.57250938  0.36492684  0.03285022    -0.20300
F3566       F  0.68063275  0.36226134  0.96837025    -0.20300
F3567       F  0.66726737  0.29424796  0.96905930    -0.20700
F3568       F  0.68689697  0.32094257  0.99887845    -0.23300
C3569       C  0.64740427  0.52154191  0.87591738    -0.06200
C3570       C  0.62605916  0.50097041  0.87810610    -0.00200
C3571       C  0.60587521  0.52602037  0.87956458    -0.08800
C3572       C  0.60789998  0.57082543  0.87806104    -0.06200
C3573       C  0.62925107  0.59125768  0.87591921    -0.00300
C3574       C  0.64943094  0.56634642  0.87490920    -0.08700
C3575       C  0.67307216  0.58664295  0.87289755     0.61700
H3576       H  0.66262872  0.50205165  0.87494166     0.12400
H3577       H  0.59274853  0.59051103  0.87906914     0.12400
C3578       C  0.58235478  0.50616940  0.88353610     0.61900
F3579       F  0.68958332  0.55688572  0.86724477    -0.23300
F3580       F  0.67903728  0.60479222  0.89370358    -0.20600
F3581       F  0.67319956  0.61768669  0.85598978    -0.20300
F3582       F  0.56605555  0.53681688  0.88845220    -0.20300
F3583       F  0.58312452  0.47822864  0.90190396    -0.20700
F3584       F  0.57533282  0.48449665  0.86408936    -0.23300
C3585       C  0.60952744  0.07113972  0.87533262    -0.06200
C3586       C  0.63105627  0.09110690  0.87714281    -0.00200
C3587       C  0.65078490  0.06526320  0.88022532    -0.08800
C3588       C  0.64807977  0.02049691  0.88099182    -0.06200
C3589       C  0.62658401  0.00047976  0.87883822    -0.00300
C3590       C  0.60679811  0.02636397  0.87620387    -0.08700
C3591       C  0.58276824  0.00758211  0.87439845     0.61700
H3592       H  0.59463888  0.09118896  0.87331138     0.12400
H3593       H  0.66299499  0.00052127  0.88303662     0.12400
C3594       C  0.67473830  0.08416601  0.88255120     0.61900
F3595       F  0.56613139  0.03879128  0.87593728    -0.23300
F3596       F  0.57890876  0.97864294  0.89196851    -0.20600
F3597       F  0.58020160  0.98749563  0.85341973    -0.20300
F3598       F  0.67682062  0.10418716  0.90362358    -0.20300
F3599       F  0.67886453  0.11322320  0.86511396    -0.20700
F3600       F  0.69148165  0.05312892  0.88125343    -0.23300
C3601       C  0.74202421  0.31405037  0.87383654    -0.06200
C3602       C  0.73053803  0.35345424  0.87290597    -0.00200
C3603       C  0.74305979  0.39218022  0.87379974    -0.08800
C3604       C  0.76705811  0.39009930  0.87481671    -0.06200
C3605       C  0.77855921  0.35069291  0.87542077    -0.00300
C3606       C  0.76600476  0.31202571  0.87521081    -0.08700
C3607       C  0.77800433  0.26921836  0.87558592     0.61700
H3608       H  0.73197519  0.28472226  0.87331369     0.12400
H3609       H  0.77714764  0.41939179  0.87503427     0.12400
C3610       C  0.73119303  0.43516963  0.87328965     0.61900
F3611       F  0.76265754  0.23528226  0.87423087    -0.23300
F3612       F  0.79018206  0.26527235  0.89576624    -0.20600
F3613       F  0.79293057  0.26654833  0.85717670    -0.20300
F3614       F  0.71918623  0.44089748  0.89349873    -0.20300
F3615       F  0.71615673  0.43682080  0.85500175    -0.20700
F3616       F  0.74669273  0.46870510  0.87102314    -0.23300
C3617       C  0.52410470  0.18872484  0.87075705    -0.06200
C3618       C  0.53038199  0.22645427  0.88252750    -0.00200
C3619       C  0.51291817  0.25195274  0.89266921    -0.08800
C3620       C  0.49007955  0.23762118  0.89137788    -0.06200
C3621       C  0.48411663  0.19976617  0.88002746    -0.00300
C3622       C  0.50115943  0.17484822  0.86939429    -0.08700
C3623       C  0.49505549  0.13333128  0.85723537     0.61700
H3624       H  0.53740026  0.16962710  0.86293662     0.12400
H3625       H  0.47653104  0.25584473  0.89939972     0.12400
C3626       C  0.51785833  0.29457953  0.90435945     0.61900
F3627       F  0.48495673  0.10534174  0.87266745    -0.23300
F3628       F  0.51416311  0.11373508  0.84800562    -0.20600
F3629       F  0.47988297  0.14129273  0.83958839    -0.20300
F3630       F  0.53149176  0.31996365  0.89037826    -0.20300
F3631       F  0.52871443  0.28768768  0.92507424    -0.20700
F3632       F  0.49799190  0.31703667  0.90881813    -0.23300
C3633       C  0.63345701  0.26441176  0.76019497    -0.06200
C3634       C  0.63427548  0.22948821  0.77541724    -0.00200
C3635       C  0.63507227  0.18741713  0.76651573    -0.08800
C3636       C  0.63519230  0.18173237  0.74251146    -0.06200
C3637       C  0.63403754  0.21658635  0.72729618    -0.00300
C3638       C  0.63309120  0.25868243  0.73617757    -0.08700
C3639       C  0.63240825  0.29723773  0.72035698     0.61700
H3640       H  0.63297229  0.29641020  0.76735550     0.12400
H3641       H  0.63590936  0.14974686  0.73535773     0.12400
C3642       C  0.63625416  0.14890926  0.78230253     0.61900
F3643       F  0.63330908  0.33538991  0.73244583    -0.23300
F3644       F  0.61235673  0.29658821  0.70779441    -0.20600
F3645       F  0.65090385  0.29637944  0.70548201    -0.20300
F3646       F  0.61624190  0.14560744  0.79490756    -0.20300
F3647       F  0.65460916  0.15340909  0.79711610    -0.20700
F3648       F  0.63895791  0.11114484  0.77018962    -0.23300
loop_ 
_geom_bond_atom_site_label_1 
_geom_bond_atom_site_label_2 
_geom_bond_distance 
_geom_bond_site_symmetry_2 
_ccdc_geom_bond_type 
Zr1           O2   2.442       .  S
Zr1           O3   2.461       .  S
Zr1           O4   2.468       .  S
Zr1           O7   2.444       .  S
Zr1           O9   2.381       .  S
Zr1          O10   2.386       .  S
Zr1          O11   2.413       .  S
Zr1          O12   2.405       .  S
O2           H58   0.990       .  S
O2           H66   0.990       .  S
O3           C23   1.289       .  A
O4           C25   1.289       .  A
O5          Zr15   2.420       .  S
O5           C24   1.282       .  A
O6          Zr14   2.425       .  S
O6           C25   1.282       .  A
O7           C24   1.288       .  A
O8          Zr16   2.401       .  S
O8           C23   1.275       .  A
O9          Zr14   2.406       .  S
O9          Zr16   2.389       .  S
O10         Zr15   2.396       .  S
O10         Zr16   2.369       .  S
O10          H45   0.966       .  S
O11         Zr14   2.395       .  S
O11         Zr31   2.387       .  S
O11          H48   0.964       .  S
O12         Zr15   2.388       .  S
O12         Zr31   2.384       .  S
Zr13         O38   2.443       .  S
Zr13         O32   2.460       .  S
Zr13         O40   2.454       .  S
Zr13         O28   2.463       .  S
Zr13         O19   2.405       .  S
Zr13         O20   2.413       .  S
Zr13         O21   2.386       .  S
Zr13         O22   2.384       .  S
Zr14         O33   2.433       .  S
Zr14         O26   2.435       .  S
Zr14         O27   2.414       .  S
Zr14         O20   2.404       .  S
Zr14         O21   2.395       .  S
Zr15         O17   2.436       .  S
Zr15         O39   2.438       .  S
Zr15         O41   2.423       .  S
Zr15         O19   2.382       .  S
Zr15         O22   2.392       .  S
Zr16         O42   2.438       .  S
Zr16         O43   2.435       .  S
Zr16         O18   2.438       .  S
Zr16         O19   2.390       .  S
Zr16         O20   2.364       .  S
O17          H54   0.990       .  S
O18          H49   0.989       .  S
O18          H63   0.989       .  S
O20          H46   0.962       .  S
O21         Zr31   2.391       .  S
O22         Zr31   2.383       .  S
O22          H47   0.966       .  S
C23        C3586   1.491       .  S
C24        C3618   1.489       .  S
C25        C3634   1.484       .  S
O26          H62   0.989       .  S
O27          C29   1.282       .  A
O28          C29   1.287       .  A
C29        C3602   1.469       .  S
O30         Zr31   2.443       .  S
O30          H59   0.990       .  S
Zr31         O34   2.439       .  S
Zr31         O35   2.439       .  S
Zr31         O36   2.403       .  S
O32          C37   1.288       .  A
O33          H50   0.990       .  S
O33          H65   0.990       .  S
O34          H51   0.990       .  S
O35          H55   0.989       .  S
O35          H64   0.990       .  S
O36          C37   1.276       .  A
C37        C3570   1.484       .  S
O38          H57   0.990       .  S
O38          H61   0.990       .  S
O39          H53   0.990       .  S
O39          H60   0.990       .  S
O40          C44   1.287       .  A
O41          C44   1.283       .  A
O42          H52   0.990       .  S
O43          H56   0.990       .  S
C44        C3554   1.483       .  S
Zr67         O68   2.443       .  S
Zr67         O69   2.447       .  S
Zr67         O70   2.472       .  S
Zr67         O73   2.443       .  S
Zr67         O75   2.378       .  S
Zr67         O76   2.390       .  S
Zr67         O77   2.408       .  S
Zr67         O78   2.407       .  S
O68         H124   0.990       .  S
O68         H132   0.990       .  S
O69          C89   1.286       .  A
O70          C91   1.291       .  A
O71         Zr81   2.423       .  S
O71          C90   1.284       .  A
O72         Zr80   2.412       .  S
O72          C91   1.279       .  A
O73          C90   1.286       .  A
O74         Zr82   2.400       .  S
O74          C89   1.276       .  A
O75         Zr80   2.401       .  S
O75         Zr82   2.385       .  S
O76         Zr81   2.396       .  S
O76         Zr82   2.371       .  S
O76         H111   0.966       .  S
O77         Zr80   2.402       .  S
O77         Zr97   2.386       .  S
O77         H114   0.965       .  S
O78         Zr81   2.396       .  S
O78         Zr97   2.390       .  S
Zr79        O104   2.440       .  S
Zr79         O98   2.457       .  S
Zr79        O106   2.448       .  S
Zr79         O94   2.466       .  S
Zr79         O85   2.410       .  S
Zr79         O86   2.412       .  S
Zr79         O87   2.381       .  S
Zr79         O88   2.387       .  S
Zr80         O99   2.435       .  S
Zr80         O92   2.435       .  S
Zr80         O93   2.420       .  S
Zr80         O86   2.395       .  S
Zr80         O87   2.394       .  S
Zr81         O83   2.435       .  S
Zr81        O105   2.438       .  S
Zr81        O107   2.430       .  S
Zr81         O85   2.390       .  S
Zr81         O88   2.393       .  S
Zr82        O108   2.435       .  S
Zr82        O109   2.434       .  S
Zr82         O84   2.437       .  S
Zr82         O85   2.393       .  S
Zr82         O86   2.369       .  S
O83         H120   0.990       .  S
O84         H115   0.989       .  S
O84         H129   0.989       .  S
O86         H112   0.963       .  S
O87         Zr97   2.385       .  S
O88         Zr97   2.381       .  S
O88         H113   0.966       .  S
C89        C3573   1.479       .  S
C90        C3522   1.476       .  S
C91        C3538   1.493       .  S
O92         H128   0.989       .  S
O93          C95   1.283       .  A
O94          C95   1.289       .  A
C95        C3506   1.479       .  S
O96         Zr97   2.440       .  S
O96         H125   0.991       .  S
Zr97        O100   2.439       .  S
Zr97        O101   2.439       .  S
Zr97        O102   2.404       .  S
O98         C103   1.288       .  A
O99         H116   0.990       .  S
O99         H131   0.990       .  S
O100        H117   0.990       .  S
O101        H121   0.989       .  S
O101        H130   0.989       .  S
O102        C103   1.276       .  A
C103       C3589   1.491   1_565  S
O104        H123   0.990       .  S
O104        H127   0.989       .  S
O105        H119   0.990       .  S
O105        H126   0.990       .  S
O106        C110   1.285       .  A
O107        C110   1.283       .  A
O108        H118   0.990       .  S
O109        H122   0.990       .  S
C110       C3490   1.482       .  S
Zr133       O134   2.442       .  S
Zr133       O135   2.455       .  S
Zr133       O136   2.464       .  S
Zr133       O139   2.438       .  S
Zr133       O141   2.377       .  S
Zr133       O142   2.391       .  S
Zr133       O143   2.405       .  S
Zr133       O144   2.409       .  S
O134        H190   0.990       .  S
O134        H198   0.991       .  S
O135        C155   1.286       .  A
O136        C157   1.288       .  A
O137       Zr147   2.416       .  S
O137        C156   1.281       .  A
O138       Zr146   2.428       .  S
O138        C157   1.283       .  A
O139        C156   1.285       .  A
O140       Zr148   2.405       .  S
O140        C155   1.279       .  A
O141       Zr146   2.398       .  S
O141       Zr148   2.391       .  S
O142       Zr147   2.401       .  S
O142       Zr148   2.372       .  S
O142        H177   0.966       .  S
O143       Zr146   2.393       .  S
O143       Zr163   2.382       .  S
O143        H180   0.964       .  S
O144       Zr147   2.391       .  S
O144       Zr163   2.388       .  S
Zr145       O170   2.443       .  S
Zr145       O164   2.450       .  S
Zr145       O172   2.444       .  S
Zr145       O160   2.457       .  S
Zr145       O151   2.405       .  S
Zr145       O152   2.411       .  S
Zr145       O153   2.385       .  S
Zr145       O154   2.382       .  S
Zr146       O165   2.437       .  S
Zr146       O158   2.435       .  S
Zr146       O159   2.402       .  S
Zr146       O152   2.407       .  S
Zr146       O153   2.399       .  S
Zr147       O149   2.435       .  S
Zr147       O171   2.438       .  S
Zr147       O173   2.435       .  S
Zr147       O151   2.384       .  S
Zr147       O154   2.388       .  S
Zr148       O174   2.440       .  S
Zr148       O175   2.440       .  S
Zr148       O150   2.438       .  S
Zr148       O151   2.389       .  S
Zr148       O152   2.374       .  S
O149        H186   0.990       .  S
O150        H181   0.990       .  S
O150        H195   0.990       .  S
O152        H178   0.962       .  S
O153       Zr163   2.383       .  S
O154       Zr163   2.378       .  S
O154        H179   0.966       .  S
C155       C3442   1.487       .  S
C156       C3474   1.470       .  S
C157       C3637   1.483       .  S
O158        H194   0.990       .  S
O159        C161   1.278       .  A
O160        C161   1.286       .  A
C161       C3458   1.458       .  S
O162       Zr163   2.438       .  S
O162        H191   0.990       .  S
Zr163       O166   2.439       .  S
Zr163       O167   2.437       .  S
Zr163       O168   2.407       .  S
O164        C169   1.285   1_545  A
O165        H182   0.990       .  S
O165        H197   0.990       .  S
O166        H183   0.990       .  S
O167        H187   0.990       .  S
O167        H196   0.990       .  S
O168        C169   1.279   1_545  A
C169       C3426   1.482       .  S
O170        H189   0.991       .  S
O170        H193   0.990       .  S
O171        H185   0.990       .  S
O171        H192   0.990       .  S
O172        C176   1.287       .  A
O173        C176   1.284       .  A
O174        H184   0.990       .  S
O175        H188   0.990       .  S
C176       C3410   1.493       .  S
Zr199       O200   2.436       .  S
Zr199       O201   2.459       .  S
Zr199       O202   2.474       .  S
Zr199       O205   2.452       .  S
Zr199       O207   2.377       .  S
Zr199       O208   2.392       .  S
Zr199       O209   2.416       .  S
Zr199       O210   2.406       .  S
O200        H256   0.989       .  S
O200        H264   0.990       .  S
O201        C221   1.286       .  A
O202        C223   1.291       .  A
O203       Zr213   2.422       .  S
O203        C222   1.282       .  A
O204       Zr212   2.426       .  S
O204        C223   1.285       .  A
O205        C222   1.287       .  A
O206       Zr214   2.404       .  S
O206        C221   1.277       .  A
O207       Zr212   2.396       .  S
O207       Zr214   2.385       .  S
O208       Zr213   2.402       .  S
O208       Zr214   2.376       .  S
O208        H243   0.966       .  S
O209       Zr212   2.398       .  S
O209       Zr229   2.386       .  S
O209        H246   0.964       .  S
O210       Zr213   2.389       .  S
O210       Zr229   2.386       .  S
Zr211       O236   2.435       .  S
Zr211       O230   2.474       .  S
Zr211       O238   2.480       .  S
Zr211       O226   2.484       .  S
Zr211       O217   2.412       .  S
Zr211       O218   2.421       .  S
Zr211       O219   2.388       .  S
Zr211       O220   2.391       .  S
Zr212       O231   2.438       .  S
Zr212       O224   2.434       .  S
Zr212       O225   2.422       .  S
Zr212       O218   2.397       .  S
Zr212       O219   2.394       .  S
Zr213       O215   2.433       .  S
Zr213       O237   2.438       .  S
Zr213       O239   2.423       .  S
Zr213       O217   2.390       .  S
Zr213       O220   2.397       .  S
Zr214       O240   2.436       .  S
Zr214       O241   2.440       .  S
Zr214       O216   2.441       .  S
Zr214       O217   2.395       .  S
Zr214       O218   2.372       .  S
O215        H252   0.990       .  S
O216        H247   0.990       .  S
O216        H261   0.990       .  S
O218        H244   0.962       .  S
O219       Zr229   2.385       .  S
O220       Zr229   2.384       .  S
O220        H245   0.966       .  S
C221       C3429   1.485       .  S
C222       C3394   1.479       .  S
C223       C3541   1.505       .  S
O224        H260   0.990       .  S
O225        C227   1.285       .  A
O226        C227   1.293       .  A
C227       C3378   1.505       .  S
O228       Zr229   2.440       .  S
O228        H257   0.990       .  S
Zr229       O232   2.438       .  S
Zr229       O233   2.440       .  S
Zr229       O234   2.397       .  S
O230        C235   1.289       .  A
O231        H248   0.990       .  S
O231        H263   0.990       .  S
O232        H249   0.990       .  S
O233        H253   0.990       .  S
O233        H262   0.989       .  S
O234        C235   1.277       .  A
C235       C3445   1.491       .  S
O236        H255   0.990       .  S
O236        H259   0.989       .  S
O237        H251   0.989       .  S
O237        H258   0.990       .  S
O238        C242   1.292       .  A
O239        C242   1.282       .  A
O240        H250   0.990       .  S
O241        H254   0.990       .  S
C242       C3362   1.493       .  S
Zr265       O266   2.438       .  S
Zr265       O267   2.473       .  S
Zr265       O268   2.492       .  S
Zr265       O271   2.443       .  S
Zr265       O273   2.376       .  S
Zr265       O274   2.396       .  S
Zr265       O275   2.413       .  S
Zr265       O276   2.417       .  S
O266        H322   0.989       .  S
O266        H330   0.990       .  S
O267        C287   1.289       .  A
O268        C289   1.294       .  A
O269       Zr279   2.421       .  S
O269        C288   1.282       .  A
O270       Zr278   2.422       .  S
O270        C289   1.284       .  A
O271        C288   1.285       .  A
O272       Zr280   2.393       .  S
O272        C287   1.276       .  A
O273       Zr278   2.397       .  S
O273       Zr280   2.390       .  S
O274       Zr279   2.403       .  S
O274       Zr280   2.371       .  S
O274        H309   0.966       .  S
O275       Zr278   2.397       .  S
O275       Zr295   2.382       .  S
O275        H312   0.963       .  S
O276       Zr279   2.390       .  S
O276       Zr295   2.389       .  S
Zr277       O302   2.443       .  S
Zr277       O296   2.452       .  S
Zr277       O304   2.449       .  S
Zr277       O292   2.471       .  S
Zr277       O283   2.405       .  S
Zr277       O284   2.409       .  S
Zr277       O285   2.380       .  S
Zr277       O286   2.394       .  S
Zr278       O297   2.436       .  S
Zr278       O290   2.434       .  S
Zr278       O291   2.416       .  S
Zr278       O284   2.400       .  S
Zr278       O285   2.395       .  S
Zr279       O281   2.436       .  S
Zr279       O303   2.439       .  S
Zr279       O305   2.430       .  S
Zr279       O283   2.389       .  S
Zr279       O286   2.394       .  S
Zr280       O306   2.437       .  S
Zr280       O307   2.437       .  S
Zr280       O282   2.438       .  S
Zr280       O283   2.384       .  S
Zr280       O284   2.374       .  S
O281        H318   0.990       .  S
O282        H313   0.990       .  S
O282        H327   0.990       .  S
O284        H310   0.963       .  S
O285       Zr295   2.387       .  S
O286       Zr295   2.379       .  S
O286        H311   0.966       .  S
C287       C3314   1.491       .  S
C288       C3621   1.468       .  S
C289       C3349   1.505       .  S
O290        H326   0.990       .  S
O291        C293   1.281       .  A
O292        C293   1.289       .  A
C293       C3330   1.472       .  S
O294       Zr295   2.439       .  S
O294        H323   0.990       .  S
Zr295       O298   2.436       .  S
Zr295       O299   2.441       .  S
Zr295       O300   2.401   1_545  S
O296        C301   1.286   1_545  A
O297        H314   0.990       .  S
O297        H329   0.990       .  S
O298        H315   0.990       .  S
O299        H319   0.990       .  S
O299        H328   0.989       .  S
O300        C301   1.277       .  A
C301       C3301   1.480       .  S
O302        H321   0.991       .  S
O302        H325   0.990       .  S
O303        H317   0.990       .  S
O303        H324   0.990       .  S
O304        C308   1.288       .  A
O305        C308   1.284       .  A
O306        H316   0.990       .  S
O307        H320   0.990       .  S
C308       C3282   1.487       .  S
Zr331       O332   2.433       .  S
Zr331       O333   2.457       .  S
Zr331       O334   2.486       .  S
Zr331       O337   2.435       .  S
Zr331       O339   2.375       .  S
Zr331       O340   2.395       .  S
Zr331       O341   2.406       .  S
Zr331       O342   2.413       .  S
O332        H388   0.988       .  S
O332        H396   0.989       .  S
O333        C353   1.286       .  A
O334        C355   1.293       .  A
O335       Zr345   2.423       .  S
O335        C354   1.284       .  A
O336       Zr344   2.416       .  S
O336        C355   1.283       .  A
O337        C354   1.283       .  A
O338       Zr346   2.403       .  S
O338        C353   1.278       .  A
O339       Zr344   2.391       .  S
O339       Zr346   2.388       .  S
O340       Zr345   2.399       .  S
O340       Zr346   2.366       .  S
O340        H375   0.966       .  S
O341       Zr344   2.396       .  S
O341       Zr361   2.375       .  S
O341        H378   0.963       .  S
O342       Zr345   2.394       .  S
O342       Zr361   2.390       .  S
Zr343       O368   2.438       .  S
Zr343       O362   2.478       .  S
Zr343       O370   2.464       .  S
Zr343       O358   2.483       .  S
Zr343       O349   2.414       .  S
Zr343       O350   2.422       .  S
Zr343       O351   2.380       .  S
Zr343       O352   2.388       .  S
Zr344       O363   2.434       .  S
Zr344       O356   2.435       .  S
Zr344       O357   2.393       .  S
Zr344       O350   2.404       .  S
Zr344       O351   2.403       .  S
Zr345       O347   2.435       .  S
Zr345       O369   2.439       .  S
Zr345       O371   2.424       .  S
Zr345       O349   2.389       .  S
Zr345       O352   2.392       .  S
Zr346       O372   2.436       .  S
Zr346       O373   2.437       .  S
Zr346       O348   2.441       .  S
Zr346       O349   2.391       .  S
Zr346       O350   2.381       .  S
O347        H384   0.990       .  S
O348        H379   0.991       .  S
O348        H393   0.990       .  S
O350        H376   0.963       .  S
O351       Zr361   2.390       .  S
O352       Zr361   2.376       .  S
O352        H377   0.966       .  S
C353       C3298   1.486       .  S
C354       C3525   1.475       .  S
C355       C3269   1.512       .  S
O356        H392   0.989       .  S
O357        C359   1.277       .  A
O358        C359   1.291       .  A
C359       C3250   1.471       .  S
O360       Zr361   2.438       .  S
O360        H389   0.991       .  S
Zr361       O364   2.436       .  S
Zr361       O365   2.441       .  S
Zr361       O366   2.397       .  S
O362        C367   1.290       .  A
O363        H380   0.990       .  S
O363        H395   0.990       .  S
O364        H381   0.990       .  S
O365        H385   0.990       .  S
O365        H394   0.990       .  S
O366        C367   1.277       .  A
C367       C3317   1.491       .  S
O368        H387   0.990       .  S
O368        H391   0.989       .  S
O369        H383   0.990       .  S
O369        H390   0.990       .  S
O370        C374   1.289       .  A
O371        C374   1.284       .  A
O372        H382   0.990       .  S
O373        H386   0.990       .  S
C374       C3234   1.501       .  S
Zr397       O398   2.441       .  S
Zr397       O399   2.456       .  S
Zr397       O400   2.476       .  S
Zr397       O403   2.440       .  S
Zr397       O405   2.372       .  S
Zr397       O406   2.395       .  S
Zr397       O407   2.407       .  S
Zr397       O408   2.410       .  S
O398        H454   0.990       .  S
O398        H462   0.990       .  S
O399        C419   1.286       .  A
O400        C421   1.292       .  A
O401       Zr411   2.434       .  S
O401        C420   1.285       .  A
O402       Zr410   2.417       .  S
O402        C421   1.279       .  A
O403        C420   1.286       .  A
O404       Zr412   2.403       .  S
O404        C419   1.276       .  A
O405       Zr410   2.398       .  S
O405       Zr412   2.387       .  S
O406       Zr411   2.405       .  S
O406       Zr412   2.373       .  S
O406        H441   0.966       .  S
O407       Zr410   2.393       .  S
O407       Zr427   2.379       .  S
O407        H444   0.964       .  S
O408       Zr411   2.391       .  S
O408       Zr427   2.384       .  S
Zr409       O434   2.443       .  S
Zr409       O428   2.467       .  S
Zr409       O436   2.439       .  S
Zr409       O424   2.468       .  S
Zr409       O415   2.412       .  S
Zr409       O416   2.413       .  S
Zr409       O417   2.380       .  S
Zr409       O418   2.384       .  S
Zr410       O429   2.438       .  S
Zr410       O422   2.432       .  S
Zr410       O423   2.409       .  S
Zr410       O416   2.401       .  S
Zr410       O417   2.394       .  S
Zr411       O413   2.434       .  S
Zr411       O435   2.437       .  S
Zr411       O437   2.447       .  S
Zr411       O415   2.387       .  S
Zr411       O418   2.392       .  S
Zr412       O438   2.438       .  S
Zr412       O439   2.439       .  S
Zr412       O414   2.439       .  S
Zr412       O415   2.394       .  S
Zr412       O416   2.376       .  S
O413        H450   0.990       .  S
O414        H445   0.990       .  S
O414        H459   0.990       .  S
O416        H442   0.961       .  S
O417       Zr427   2.385       .  S
O418       Zr427   2.384       .  S
O418        H443   0.965       .  S
C419       C3205   1.479       .  S
C420       C3477   1.482       .  S
C421       C3346   1.503       .  S
O422        H458   0.990       .  S
O423        C425   1.280       .  A
O424        C425   1.289       .  A
C425       C3218   1.466       .  S
O426       Zr427   2.439       .  S
O426        H455   0.990       .  S
Zr427       O430   2.437       .  S
Zr427       O431   2.440       .  S
Zr427       O432   2.401       .  S
O428        C433   1.288       .  A
O429        H446   0.990       .  S
O429        H461   0.990       .  S
O430        H447   0.990       .  S
O431        H451   0.990       .  S
O431        H460   0.989       .  S
O432        C433   1.276       .  A
C433       C3186   1.481       .  S
O434        H453   0.990       .  S
O434        H457   0.990       .  S
O435        H449   0.990       .  S
O435        H456   0.990       .  S
O436        C440   1.284       .  A
O437        C440   1.288       .  A
O438        H448   0.990       .  S
O439        H452   0.990       .  S
C440       C3170   1.486       .  S
Zr463       O464   2.443       .  S
Zr463       O465   2.469       .  S
Zr463       O466   2.454       .  S
Zr463       O469   2.449       .  S
Zr463       O471   2.378       .  S
Zr463       O472   2.384       .  S
Zr463       O473   2.419       .  S
Zr463       O474   2.410       .  S
O464        H520   0.990       .  S
O464        H528   0.991       .  S
O465        C485   1.289       .  A
O466        C487   1.287       .  A
O467       Zr477   2.419       .  S
O467        C486   1.281       .  A
O468       Zr476   2.423       .  S
O468        C487   1.281       .  A
O469        C486   1.287       .  A
O470       Zr478   2.406       .  S
O470        C485   1.278       .  A
O471       Zr476   2.401       .  S
O471       Zr478   2.388       .  S
O472       Zr477   2.396       .  S
O472       Zr478   2.375       .  S
O472        H507   0.966       .  S
O473       Zr476   2.400       .  S
O473       Zr493   2.387       .  S
O473        H510   0.964       .  S
O474       Zr477   2.388       .  S
O474       Zr493   2.395       .  S
Zr475       O500   2.441       .  S
Zr475       O494   2.456       .  S
Zr475       O502   2.446       .  S
Zr475       O490   2.454       .  S
Zr475       O481   2.409       .  S
Zr475       O482   2.413       .  S
Zr475       O483   2.383       .  S
Zr475       O484   2.385       .  S
Zr476       O495   2.435       .  S
Zr476       O488   2.433       .  S
Zr476       O489   2.427       .  S
Zr476       O482   2.397       .  S
Zr476       O483   2.399       .  S
Zr477       O479   2.431       .  S
Zr477       O501   2.439       .  S
Zr477       O503   2.417       .  S
Zr477       O481   2.392       .  S
Zr477       O484   2.393       .  S
Zr478       O504   2.436       .  S
Zr478       O505   2.439       .  S
Zr478       O480   2.441       .  S
Zr478       O481   2.397       .  S
Zr478       O482   2.380       .  S
O479        H516   0.990       .  S
O480        H511   0.990       .  S
O480        H525   0.990       .  S
O482        H508   0.963       .  S
O483       Zr493   2.386       .  S
O484       Zr493   2.377       .  S
O484        H509   0.966       .  S
C485       C3189   1.484       .  S
C486       C3397   1.479       .  S
C487       C3266   1.477       .  S
O488        H524   0.990       .  S
O489        C491   1.283       .  A
O490        C491   1.286       .  A
C491       C3157   1.472       .  S
O492       Zr493   2.441       .  S
O492        H521   0.990       .  S
Zr493       O496   2.438       .  S
Zr493       O497   2.441       .  S
Zr493       O498   2.418       .  S
O494        C499   1.285       .  A
O495        H512   0.990       .  S
O495        H527   0.990       .  S
O496        H513   0.990       .  S
O497        H517   0.990       .  S
O497        H526   0.990       .  S
O498        C499   1.279       .  A
C499       C3202   1.484       .  S
O500        H519   0.990       .  S
O500        H523   0.989       .  S
O501        H515   0.990       .  S
O501        H522   0.990       .  S
O502        C506   1.285       .  A
O503        C506   1.282       .  A
O504        H514   0.990       .  S
O505        H518   0.990       .  S
C506       C3138   1.483       .  S
Zr529       O530   2.433       .  S
Zr529       O531   2.456       .  S
Zr529       O532   2.481       .  S
Zr529       O535   2.418       .  S
Zr529       O537   2.370       .  S
Zr529       O538   2.391       .  S
Zr529       O539   2.404   1_565  S
Zr529       O540   2.412   1_565  S
O530        H586   0.989       .  S
O530        H594   0.989       .  S
O531        C551   1.286       .  A
O532        C553   1.291       .  A
O533       Zr543   2.418       .  S
O533        C552   1.280       .  A
O534       Zr542   2.419       .  S
O534        C553   1.284   1_545  A
O535        C552   1.281   1_565  A
O536       Zr544   2.401       .  S
O536        C551   1.277       .  A
O537       Zr542   2.390   1_565  S
O537       Zr544   2.390       .  S
O538       Zr543   2.398   1_565  S
O538       Zr544   2.367       .  S
O538        H573   0.966       .  S
O539       Zr542   2.396       .  S
O539       Zr559   2.374       .  S
O539        H576   0.963       .  S
O540       Zr543   2.391       .  S
O540       Zr559   2.393       .  S
Zr541       O566   2.442       .  S
Zr541       O560   2.468       .  S
Zr541       O568   2.451       .  S
Zr541       O556   2.462       .  S
Zr541       O547   2.412       .  S
Zr541       O548   2.415       .  S
Zr541       O549   2.382       .  S
Zr541       O550   2.385       .  S
Zr542       O561   2.438       .  S
Zr542       O554   2.435   1_545  S
Zr542       O555   2.412       .  S
Zr542       O548   2.401       .  S
Zr542       O549   2.400       .  S
Zr543       O545   2.434       .  S
Zr543       O567   2.441       .  S
Zr543       O569   2.420       .  S
Zr543       O547   2.391       .  S
Zr543       O550   2.390       .  S
Zr544       O570   2.437       .  S
Zr544       O571   2.436       .  S
Zr544       O546   2.436       .  S
Zr544       O547   2.390   1_565  S
Zr544       O548   2.374   1_565  S
O545        H582   0.990       .  S
O546        H577   0.990       .  S
O546        H591   0.990       .  S
O548        H574   0.963       .  S
O549       Zr559   2.382       .  S
O550       Zr559   2.375       .  S
O550        H575   0.966       .  S
C551       C3077   1.482       .  S
C552       C3106   1.465   1_545  S
C553       C3122   1.504       .  S
O554        H590   0.990       .  S
O555        C557   1.279       .  A
O556        C557   1.290       .  A
C557       C3461   1.482       .  S
O558       Zr559   2.438       .  S
O558        H587   0.990       .  S
Zr559       O562   2.438       .  S
Zr559       O563   2.438       .  S
Zr559       O564   2.395       .  S
O560        C565   1.288       .  A
O561        H578   0.990       .  S
O561        H593   0.990       .  S
O562        H579   0.990       .  S
O563        H583   0.990       .  S
O563        H592   0.990       .  S
O564        C565   1.278       .  A
C565       C3090   1.493       .  S
O566        H585   0.990       .  S
O566        H589   0.991       .  S
O567        H581   0.990       .  S
O567        H588   0.990   1_545  S
O568        C572   1.288       .  A
O569        C572   1.282       .  A
O570        H580   0.990       .  S
O571        H584   0.990   1_565  S
C572       C3061   1.483       .  S
Zr595       O596   2.434       .  S
Zr595       O597   2.462       .  S
Zr595       O598   2.482       .  S
Zr595       O601   2.430       .  S
Zr595       O603   2.376       .  S
Zr595       O604   2.386       .  S
Zr595       O605   2.411       .  S
Zr595       O606   2.412       .  S
O596        H652   0.987       .  S
O596        H660   0.988       .  S
O597        C617   1.288       .  A
O598        C619   1.292       .  A
O599       Zr609   2.425       .  S
O599        C618   1.282       .  A
O600       Zr608   2.429       .  S
O600        C619   1.285       .  A
O601        C618   1.283       .  A
O602       Zr610   2.399       .  S
O602        C617   1.278       .  A
O603       Zr608   2.399       .  S
O603       Zr610   2.391       .  S
O604       Zr609   2.396       .  S
O604       Zr610   2.369       .  S
O604        H639   0.966       .  S
O605       Zr608   2.396       .  S
O605       Zr625   2.388       .  S
O605        H642   0.964       .  S
O606       Zr609   2.387       .  S
O606       Zr625   2.389       .  S
Zr607       O632   2.441       .  S
Zr607       O626   2.460       .  S
Zr607       O634   2.469       .  S
Zr607       O622   2.480       .  S
Zr607       O613   2.402       .  S
Zr607       O614   2.415       .  S
Zr607       O615   2.387       .  S
Zr607       O616   2.391       .  S
Zr608       O627   2.436       .  S
Zr608       O620   2.435       .  S
Zr608       O621   2.412       .  S
Zr608       O614   2.405       .  S
Zr608       O615   2.398       .  S
Zr609       O611   2.435       .  S
Zr609       O633   2.438       .  S
Zr609       O635   2.422       .  S
Zr609       O613   2.388       .  S
Zr609       O616   2.394       .  S
Zr610       O636   2.435       .  S
Zr610       O637   2.435       .  S
Zr610       O612   2.436       .  S
Zr610       O613   2.384       .  S
Zr610       O614   2.373       .  S
O611        H648   0.990       .  S
O612        H643   0.990       .  S
O612        H657   0.990       .  S
O614        H640   0.964       .  S
O615       Zr625   2.384       .  S
O616       Zr625   2.380       .  S
O616        H641   0.966       .  S
C617       C3093   1.491       .  S
C618       C3026   1.471       .  S
C619       C3045   1.517       .  S
O620        H656   0.990       .  S
O621        C623   1.281       .  A
O622        C623   1.293       .  A
C623       C3381   1.492       .  S
O624       Zr625   2.440       .  S
O624        H653   0.990       .  S
Zr625       O628   2.438       .  S
Zr625       O629   2.439       .  S
Zr625       O630   2.401       .  S
O626        C631   1.288       .  A
O627        H644   0.990       .  S
O627        H659   0.990       .  S
O628        H645   0.990       .  S
O629        H649   0.990       .  S
O629        H658   0.989       .  S
O630        C631   1.278       .  A
C631       C3074   1.485       .  S
O632        H651   0.991       .  S
O632        H655   0.990       .  S
O633        H647   0.990       .  S
O633        H654   0.990       .  S
O634        C638   1.292       .  A
O635        C638   1.282       .  A
O636        H646   0.990       .  S
O637        H650   0.990       .  S
C638       C3013   1.495       .  S
Zr661       O662   2.441       .  S
Zr661       O663   2.448       .  S
Zr661       O664   2.469       .  S
Zr661       O667   2.435       .  S
Zr661       O669   2.376       .  S
Zr661       O670   2.392       .  S
Zr661       O671   2.404       .  S
Zr661       O672   2.408       .  S
O662        H718   0.989       .  S
O662        H726   0.990       .  S
O663        C683   1.285       .  A
O664        C685   1.290       .  A
O665       Zr675   2.426       .  S
O665        C684   1.284       .  A
O666       Zr674   2.415       .  S
O666        C685   1.279       .  A
O667        C684   1.285       .  A
O668       Zr676   2.412       .  S
O668        C683   1.279       .  A
O669       Zr674   2.399       .  S
O669       Zr676   2.388       .  S
O670       Zr675   2.398       .  S
O670       Zr676   2.367       .  S
O670        H705   0.966       .  S
O671       Zr674   2.391       .  S
O671       Zr691   2.390       .  S
O671        H708   0.965       .  S
O672       Zr675   2.396       .  S
O672       Zr691   2.384       .  S
Zr673       O698   2.441       .  S
Zr673       O692   2.471       .  S
Zr673       O700   2.452       .  S
Zr673       O688   2.475       .  S
Zr673       O679   2.414       .  S
Zr673       O680   2.420       .  S
Zr673       O681   2.383       .  S
Zr673       O682   2.387       .  S
Zr674       O693   2.436       .  S
Zr674       O686   2.432       .  S
Zr674       O687   2.395       .  S
Zr674       O680   2.401       .  S
Zr674       O681   2.395       .  S
Zr675       O677   2.434       .  S
Zr675       O699   2.440       .  S
Zr675       O701   2.445       .  S
Zr675       O679   2.383       .  S
Zr675       O682   2.396       .  S
Zr676       O702   2.436       .  S
Zr676       O703   2.435       .  S
Zr676       O678   2.436       .  S
Zr676       O679   2.393       .  S
Zr676       O680   2.379       .  S
O677        H714   0.990       .  S
O678        H709   0.990       .  S
O678        H723   0.990       .  S
O680        H706   0.963       .  S
O681       Zr691   2.389       .  S
O682       Zr691   2.382       .  S
O682        H707   0.966       .  S
C683       C2962   1.485       .  S
C684       C2994   1.471       .  S
C685       C3042   1.487       .  S
O686        H722   0.990       .  S
O687        C689   1.278       .  A
O688        C689   1.290       .  A
C689       C3605   1.469       .  S
O690       Zr691   2.440       .  S
O690        H719   0.990       .  S
Zr691       O694   2.437       .  S
Zr691       O695   2.440       .  S
Zr691       O696   2.398       .  S
O692        C697   1.289       .  A
O693        H710   0.990       .  S
O693        H725   0.990       .  S
O694        H711   0.990       .  S
O695        H715   0.990       .  S
O695        H724   0.990       .  S
O696        C697   1.277       .  A
C697       C2978   1.486       .  S
O698        H717   0.990       .  S
O698        H721   0.990       .  S
O699        H713   0.990       .  S
O699        H720   0.990       .  S
O700        C704   1.287       .  A
O701        C704   1.287       .  A
O702        H712   0.990       .  S
O703        H716   0.990       .  S
C704       C2946   1.490       .  S
Zr727       O728   2.440       .  S
Zr727       O729   2.463   1_565  S
Zr727       O730   2.465       .  S
Zr727       O733   2.449       .  S
Zr727       O735   2.376       .  S
Zr727       O736   2.391       .  S
Zr727       O737   2.412       .  S
Zr727       O738   2.403       .  S
O728        H784   0.990   1_565  S
O728        H792   0.991       .  S
O729        C749   1.288       .  A
O730        C751   1.290       .  A
O731       Zr741   2.415       .  S
O731        C750   1.281       .  A
O732       Zr740   2.413       .  S
O732        C751   1.279       .  A
O733        C750   1.288       .  A
O734       Zr742   2.407   1_545  S
O734        C749   1.279       .  A
O735       Zr740   2.397       .  S
O735       Zr742   2.384       .  S
O736       Zr741   2.396       .  S
O736       Zr742   2.375       .  S
O736        H771   0.966       .  S
O737       Zr740   2.396       .  S
O737       Zr757   2.386       .  S
O737        H774   0.965       .  S
O738       Zr741   2.386       .  S
O738       Zr757   2.378       .  S
Zr739       O764   2.441       .  S
Zr739       O758   2.463       .  S
Zr739       O766   2.455       .  S
Zr739       O754   2.469       .  S
Zr739       O745   2.411       .  S
Zr739       O746   2.415       .  S
Zr739       O747   2.385       .  S
Zr739       O748   2.386       .  S
Zr740       O759   2.436       .  S
Zr740       O752   2.434       .  S
Zr740       O753   2.410       .  S
Zr740       O746   2.396       .  S
Zr740       O747   2.396       .  S
Zr741       O743   2.434       .  S
Zr741       O765   2.437       .  S
Zr741       O767   2.420       .  S
Zr741       O745   2.386       .  S
Zr741       O748   2.390       .  S
Zr742       O768   2.434   1_565  S
Zr742       O769   2.438       .  S
Zr742       O744   2.438   1_565  S
Zr742       O745   2.395       .  S
Zr742       O746   2.372       .  S
O743        H780   0.990       .  S
O744        H775   0.990       .  S
O744        H789   0.990       .  S
O746        H772   0.963       .  S
O747       Zr757   2.391       .  S
O748       Zr757   2.383       .  S
O748        H773   0.966       .  S
C749       C2981   1.487       .  S
C750       C2930   1.477       .  S
C751       C3125   1.493       .  S
O752        H788   0.990       .  S
O753        C755   1.280       .  A
O754        C755   1.289       .  A
C755       C3509   1.469       .  S
O756       Zr757   2.440       .  S
O756        H785   0.990       .  S
Zr757       O760   2.437       .  S
Zr757       O761   2.443       .  S
Zr757       O762   2.394       .  S
O758        C763   1.288       .  A
O759        H776   0.990       .  S
O759        H791   0.990       .  S
O760        H777   0.990       .  S
O761        H781   0.990       .  S
O761        H790   0.989       .  S
O762        C763   1.276       .  A
C763       C2965   1.481       .  S
O764        H783   0.990       .  S
O764        H787   0.990       .  S
O765        H779   0.990       .  S
O765        H786   0.990       .  S
O766        C770   1.288       .  A
O767        C770   1.283       .  A
O768        H778   0.990   1_545  S
O769        H782   0.990       .  S
C770       C2914   1.484       .  S
Zr793       O794   2.441       .  S
Zr793       O795   2.452       .  S
Zr793       O796   2.450       .  S
Zr793       O799   2.426       .  S
Zr793       O801   2.375       .  S
Zr793       O802   2.386       .  S
Zr793       O803   2.406   1_565  S
Zr793       O804   2.409   1_565  S
O794        H850   0.990       .  S
O794        H858   0.990       .  S
O795        C815   1.286       .  A
O796        C817   1.287       .  A
O797       Zr807   2.426       .  S
O797        C816   1.283   1_545  A
O798       Zr806   2.436       .  S
O798        C817   1.284   1_545  A
O799        C816   1.283       .  A
O800       Zr808   2.404       .  S
O800        C815   1.277       .  A
O801       Zr806   2.394   1_565  S
O801       Zr808   2.385       .  S
O802       Zr807   2.398   1_565  S
O802       Zr808   2.370       .  S
O802        H837   0.966       .  S
O803       Zr806   2.394       .  S
O803       Zr823   2.382       .  S
O803        H840   0.964       .  S
O804       Zr807   2.393       .  S
O804       Zr823   2.391       .  S
Zr805       O830   2.437       .  S
Zr805       O824   2.473       .  S
Zr805       O832   2.466       .  S
Zr805       O820   2.480       .  S
Zr805       O811   2.408       .  S
Zr805       O812   2.419       .  S
Zr805       O813   2.386       .  S
Zr805       O814   2.392       .  S
Zr806       O825   2.435       .  S
Zr806       O818   2.436   1_545  S
Zr806       O819   2.404       .  S
Zr806       O812   2.405       .  S
Zr806       O813   2.400       .  S
Zr807       O809   2.436       .  S
Zr807       O831   2.439       .  S
Zr807       O833   2.428       .  S
Zr807       O811   2.388       .  S
Zr807       O814   2.394       .  S
Zr808       O834   2.439       .  S
Zr808       O835   2.436       .  S
Zr808       O810   2.438       .  S
Zr808       O811   2.388   1_565  S
Zr808       O812   2.385   1_565  S
O809        H846   0.990       .  S
O810        H841   0.990       .  S
O810        H855   0.990       .  S
O812        H838   0.964       .  S
O813       Zr823   2.386       .  S
O814       Zr823   2.382       .  S
O814        H839   0.965       .  S
C815       C2866   1.482       .  S
C816       C2933   1.470       .  S
C817       C2901   1.491       .  S
O818        H854   0.990       .  S
O819        C821   1.281       .  A
O820        C821   1.292       .  A
C821       C3333   1.487       .  S
O822       Zr823   2.439       .  S
O822        H851   0.991       .  S
Zr823       O826   2.438       .  S
Zr823       O827   2.440       .  S
Zr823       O828   2.401       .  S
O824        C829   1.289       .  A
O825        H842   0.990       .  S
O825        H857   0.990       .  S
O826        H843   0.990       .  S
O827        H847   0.990       .  S
O827        H856   0.989       .  S
O828        C829   1.277       .  A
C829       C2882   1.485       .  S
O830        H849   0.990       .  S
O830        H853   0.990       .  S
O831        H845   0.990       .  S
O831        H852   0.990   1_545  S
O832        C836   1.289       .  A
O833        C836   1.283       .  A
O834        H844   0.990       .  S
O835        H848   0.990   1_565  S
C836       C2850   1.495       .  S
Zr859       O860   2.440       .  S
Zr859       O861   2.459       .  S
Zr859       O862   2.475       .  S
Zr859       O865   2.439       .  S
Zr859       O867   2.375       .  S
Zr859       O868   2.392       .  S
Zr859       O869   2.410       .  S
Zr859       O870   2.411       .  S
O860        H916   0.990       .  S
O860        H924   0.990       .  S
O861        C881   1.286       .  A
O862        C883   1.292       .  A
O863       Zr873   2.420       .  S
O863        C882   1.283       .  A
O864       Zr872   2.419       .  S
O864        C883   1.281       .  A
O865        C882   1.285       .  A
O866       Zr874   2.405       .  S
O866        C881   1.277       .  A
O867       Zr872   2.399       .  S
O867       Zr874   2.387       .  S
O868       Zr873   2.401       .  S
O868       Zr874   2.367       .  S
O868        H903   0.966       .  S
O869       Zr872   2.396       .  S
O869       Zr889   2.384       .  S
O869        H906   0.963       .  S
O870       Zr873   2.391       .  S
O870       Zr889   2.384       .  S
Zr871       O896   2.436       .  S
Zr871       O890   2.475       .  S
Zr871       O898   2.461       .  S
Zr871       O886   2.484       .  S
Zr871       O877   2.415       .  S
Zr871       O878   2.415       .  S
Zr871       O879   2.380       .  S
Zr871       O880   2.394       .  S
Zr872       O891   2.433       .  S
Zr872       O884   2.434       .  S
Zr872       O885   2.392       .  S
Zr872       O878   2.402       .  S
Zr872       O879   2.394       .  S
Zr873       O875   2.435       .  S
Zr873       O897   2.437       .  S
Zr873       O899   2.435       .  S
Zr873       O877   2.388       .  S
Zr873       O880   2.396       .  S
Zr874       O900   2.435       .  S
Zr874       O901   2.436       .  S
Zr874       O876   2.441       .  S
Zr874       O877   2.391       .  S
Zr874       O878   2.377       .  S
O875        H912   0.990       .  S
O876        H907   0.990       .  S
O876        H921   0.990       .  S
O878        H904   0.962       .  S
O879       Zr889   2.387       .  S
O880       Zr889   2.379       .  S
O880        H905   0.966       .  S
C881       C2885   1.482       .  S
C882       C2997   1.473       .  S
C883       C2834   1.490       .  S
O884        H920   0.990       .  S
O885        C887   1.278       .  A
O886        C887   1.292       .  A
C887       C3253   1.473       .  S
O888       Zr889   2.439       .  S
O888        H917   0.991       .  S
Zr889       O892   2.438       .  S
Zr889       O893   2.439       .  S
Zr889       O894   2.402       .  S
O890        C895   1.290       .  A
O891        H908   0.990       .  S
O891        H923   0.988       .  S
O892        H909   0.990       .  S
O893        H913   0.990       .  S
O893        H922   0.990       .  S
O894        C895   1.278       .  A
C895       C2869   1.491       .  S
O896        H915   0.990       .  S
O896        H919   0.987       .  S
O897        H911   0.990       .  S
O897        H918   0.990       .  S
O898        C902   1.289       .  A
O899        C902   1.286       .  A
O900        H910   0.990       .  S
O901        H914   0.990       .  S
C902       C2818   1.498       .  S
Zr925       O926   2.442       .  S
Zr925       O927   2.446       .  S
Zr925       O928   2.459       .  S
Zr925       O931   2.430       .  S
Zr925       O933   2.378       .  S
Zr925       O934   2.390       .  S
Zr925       O935   2.405       .  S
Zr925       O936   2.407       .  S
O926        H982   0.990       .  S
O926        H990   0.991       .  S
O927        C947   1.285       .  A
O928        C949   1.287       .  A
O929       Zr939   2.424       .  S
O929        C948   1.283       .  A
O930       Zr938   2.421       .  S
O930        C949   1.280       .  A
O931        C948   1.284       .  A
O932       Zr940   2.405       .  S
O932        C947   1.278       .  A
O933       Zr938   2.388       .  S
O933       Zr940   2.386       .  S
O934       Zr939   2.394       .  S
O934       Zr940   2.371       .  S
O934        H969   0.966       .  S
O935       Zr938   2.396       .  S
O935       Zr955   2.380       .  S
O935        H972   0.964       .  S
O936       Zr939   2.389       .  S
O936       Zr955   2.386       .  S
Zr937       O962   2.441       .  S
Zr937       O956   2.476       .  S
Zr937       O964   2.472       .  S
Zr937       O952   2.473       .  S
Zr937       O943   2.409       .  S
Zr937       O944   2.419       .  S
Zr937       O945   2.383       .  S
Zr937       O946   2.391       .  S
Zr938       O957   2.435       .  S
Zr938       O950   2.434       .  S
Zr938       O951   2.405       .  S
Zr938       O944   2.397       .  S
Zr938       O945   2.398       .  S
Zr939       O941   2.435       .  S
Zr939       O963   2.438       .  S
Zr939       O965   2.414       .  S
Zr939       O943   2.392       .  S
Zr939       O946   2.397       .  S
Zr940       O966   2.435       .  S
Zr940       O967   2.436       .  S
Zr940       O942   2.439       .  S
Zr940       O943   2.384       .  S
Zr940       O944   2.382       .  S
O941        H978   0.990       .  S
O942        H973   0.991       .  S
O942        H987   0.990       .  S
O944        H970   0.963       .  S
O945       Zr955   2.382       .  S
O946       Zr955   2.376       .  S
O946        H971   0.966       .  S
C947       C2786   1.477       .  S
C948       C3029   1.477       .  S
C949       C2837   1.473       .  S
O950        H986   0.990       .  S
O951        C953   1.278       .  A
O952        C953   1.292       .  A
C953       C3221   1.484       .  S
O954       Zr955   2.437       .  S
O954        H983   0.990       .  S
Zr955       O958   2.437       .  S
Zr955       O959   2.438       .  S
Zr955       O960   2.401       .  S
O956        C961   1.290       .  A
O957        H974   0.990       .  S
O957        H989   0.989       .  S
O958        H975   0.990       .  S
O959        H979   0.990       .  S
O959        H988   0.989       .  S
O960        C961   1.278       .  A
C961       C2802   1.494       .  S
O962        H981   0.990       .  S
O962        H985   0.989       .  S
O963        H977   0.989       .  S
O963        H984   0.990       .  S
O964        C968   1.290       .  A
O965        C968   1.281       .  A
O966        H976   0.990       .  S
O967        H980   0.990       .  S
C968       C2773   1.487       .  S
Zr991       O992   2.436       .  S
Zr991       O993   2.464   1_565  S
Zr991       O994   2.483       .  S
Zr991       O997   2.428       .  S
Zr991       O999   2.368       .  S
Zr991      O1000   2.389       .  S
Zr991      O1001   2.412       .  S
Zr991      O1002   2.416       .  S
O992       H1048   0.989   1_565  S
O992       H1056   0.988       .  S
O993       C1013   1.288       .  A
O994       C1015   1.293       .  A
O995      Zr1005   2.408       .  S
O995       C1014   1.279       .  A
O996      Zr1004   2.413       .  S
O996       C1015   1.281       .  A
O997       C1014   1.283       .  A
O998      Zr1006   2.408   1_545  S
O998       C1013   1.279       .  A
O999      Zr1004   2.391       .  S
O999      Zr1006   2.380       .  S
O1000     Zr1005   2.398       .  S
O1000     Zr1006   2.369       .  S
O1000      H1035   0.966       .  S
O1001     Zr1004   2.398       .  S
O1001     Zr1021   2.382       .  S
O1001      H1038   0.964       .  S
O1002     Zr1005   2.391       .  S
O1002     Zr1021   2.391       .  S
Zr1003     O1028   2.441       .  S
Zr1003     O1022   2.469       .  S
Zr1003     O1030   2.463       .  S
Zr1003     O1018   2.478       .  S
Zr1003     O1009   2.406       .  S
Zr1003     O1010   2.416       .  S
Zr1003     O1011   2.389       .  S
Zr1003     O1012   2.390       .  S
Zr1004     O1023   2.437       .  S
Zr1004     O1016   2.437       .  S
Zr1004     O1017   2.411       .  S
Zr1004     O1010   2.400       .  S
Zr1004     O1011   2.403       .  S
Zr1005     O1007   2.435       .  S
Zr1005     O1029   2.439       .  S
Zr1005     O1031   2.422       .  S
Zr1005     O1009   2.381       .  S
Zr1005     O1012   2.386       .  S
Zr1006     O1032   2.435       .  S
Zr1006     O1033   2.436       .  S
Zr1006     O1008   2.436       .  S
Zr1006     O1009   2.387       .  S
Zr1006     O1010   2.378       .  S
O1007      H1044   0.990       .  S
O1008      H1039   0.990   1_565  S
O1008      H1053   0.990   1_565  S
O1010      H1036   0.963       .  S
O1011     Zr1021   2.390       .  S
O1012     Zr1021   2.382       .  S
O1012      H1037   0.966       .  S
C1013      C2805   1.497       .  S
C1014      C3109   1.464       .  S
C1015      C2898   1.508       .  S
O1016      H1052   0.990       .  S
O1017      C1019   1.279       .  A
O1018      C1019   1.292       .  A
C1019      C3154   1.487       .  S
O1020     Zr1021   2.439       .  S
O1020      H1049   0.990       .  S
Zr1021     O1024   2.436       .  S
Zr1021     O1025   2.442       .  S
Zr1021     O1026   2.398       .  S
O1022      C1027   1.289       .  A
O1023      H1040   0.991       .  S
O1023      H1055   0.990       .  S
O1024      H1041   0.990       .  S
O1025      H1045   0.990       .  S
O1025      H1054   0.990       .  S
O1026      C1027   1.276       .  A
C1027      C2789   1.479       .  S
O1028      H1047   0.991       .  S
O1028      H1051   0.990       .  S
O1029      H1043   0.990       .  S
O1029      H1050   0.990       .  S
O1030      C1034   1.291       .  A
O1031      C1034   1.282       .  A
O1032      H1042   0.990       .  S
O1033      H1046   0.990       .  S
C1034      C2754   1.493       .  S
Zr1057     O1058   2.434       .  S
Zr1057     O1059   2.459       .  S
Zr1057     O1060   2.468       .  S
Zr1057     O1063   2.467       .  S
Zr1057     O1065   2.382       .  S
Zr1057     O1066   2.391       .  S
Zr1057     O1067   2.417       .  S
Zr1057     O1068   2.402       .  S
O1058      H1114   0.990       .  S
O1058      H1122   0.989       .  S
O1059      C1079   1.287   1_545  A
O1060      C1081   1.289       .  A
O1061     Zr1071   2.411       .  S
O1061      C1080   1.281       .  A
O1062     Zr1070   2.435       .  S
O1062      C1081   1.285       .  A
O1063      C1080   1.289       .  A
O1064     Zr1072   2.397   1_565  S
O1064      C1079   1.276       .  A
O1065     Zr1070   2.391       .  S
O1065     Zr1072   2.386       .  S
O1066     Zr1071   2.395       .  S
O1066     Zr1072   2.382       .  S
O1066      H1101   0.966       .  S
O1067     Zr1070   2.393       .  S
O1067     Zr1087   2.383       .  S
O1067      H1104   0.962       .  S
O1068     Zr1071   2.381       .  S
O1068     Zr1087   2.385       .  S
Zr1069     O1094   2.442       .  S
Zr1069     O1088   2.464       .  S
Zr1069     O1096   2.464       .  S
Zr1069     O1084   2.456       .  S
Zr1069     O1075   2.404       .  S
Zr1069     O1076   2.417       .  S
Zr1069     O1077   2.385       .  S
Zr1069     O1078   2.380       .  S
Zr1070     O1089   2.436       .  S
Zr1070     O1082   2.435       .  S
Zr1070     O1083   2.412       .  S
Zr1070     O1076   2.406       .  S
Zr1070     O1077   2.403       .  S
Zr1071     O1073   2.438       .  S
Zr1071     O1095   2.435       .  S
Zr1071     O1097   2.411       .  S
Zr1071     O1075   2.384       .  S
Zr1071     O1078   2.392       .  S
Zr1072     O1098   2.437       .  S
Zr1072     O1099   2.436       .  S
Zr1072     O1074   2.437       .  S
Zr1072     O1075   2.388       .  S
Zr1072     O1076   2.388       .  S
O1073      H1110   0.990       .  S
O1074      H1105   0.990       .  S
O1074      H1119   0.990       .  S
O1076      H1102   0.965       .  S
O1077     Zr1087   2.383       .  S
O1078     Zr1087   2.378       .  S
O1078      H1103   0.966       .  S
C1079      C2674   1.486       .  S
C1080      C2706   1.482       .  S
C1081      C3285   1.495       .  S
O1082      H1118   0.990       .  S
O1083      C1085   1.281       .  A
O1084      C1085   1.287       .  A
C1085      C2722   1.473       .  S
O1086     Zr1087   2.438       .  S
O1086      H1115   0.990       .  S
Zr1087     O1090   2.437       .  S
Zr1087     O1091   2.440       .  S
Zr1087     O1092   2.406       .  S
O1088      C1093   1.289       .  A
O1089      H1106   0.990       .  S
O1089      H1121   0.990       .  S
O1090      H1107   0.990       .  S
O1091      H1111   0.990       .  S
O1091      H1120   0.990       .  S
O1092      C1093   1.279       .  A
C1093      C2690   1.488       .  S
O1094      H1113   0.991       .  S
O1094      H1117   0.990       .  S
O1095      H1109   0.990       .  S
O1095      H1116   0.990       .  S
O1096      C1100   1.291       .  A
O1097      C1100   1.279       .  A
O1098      H1108   0.990       .  S
O1099      H1112   0.990       .  S
C1100      C2741   1.493       .  S
Zr1123     O1124   2.441       .  S
Zr1123     O1125   2.455       .  S
Zr1123     O1126   2.459       .  S
Zr1123     O1129   2.450       .  S
Zr1123     O1131   2.381       .  S
Zr1123     O1132   2.393       .  S
Zr1123     O1133   2.411       .  S
Zr1123     O1134   2.400       .  S
O1124      H1180   0.989       .  S
O1124      H1188   0.991       .  S
O1125      C1145   1.286       .  A
O1126      C1147   1.288       .  A
O1127     Zr1137   2.418       .  S
O1127      C1146   1.282       .  A
O1128     Zr1136   2.422       .  S
O1128      C1147   1.281       .  A
O1129      C1146   1.287       .  A
O1130     Zr1138   2.407       .  S
O1130      C1145   1.279       .  A
O1131     Zr1136   2.397       .  S
O1131     Zr1138   2.386       .  S
O1132     Zr1137   2.397       .  S
O1132     Zr1138   2.378       .  S
O1132      H1167   0.966       .  S
O1133     Zr1136   2.397       .  S
O1133     Zr1153   2.391       .  S
O1133      H1170   0.965       .  S
O1134     Zr1137   2.385       .  S
O1134     Zr1153   2.380       .  S
Zr1135     O1160   2.435       .  S
Zr1135     O1154   2.453       .  S
Zr1135     O1162   2.455       .  S
Zr1135     O1150   2.449       .  S
Zr1135     O1141   2.405       .  S
Zr1135     O1142   2.412       .  S
Zr1135     O1143   2.384       .  S
Zr1135     O1144   2.380       .  S
Zr1136     O1155   2.436       .  S
Zr1136     O1148   2.433       .  S
Zr1136     O1149   2.420       .  S
Zr1136     O1142   2.402       .  S
Zr1136     O1143   2.398       .  S
Zr1137     O1139   2.435       .  S
Zr1137     O1161   2.437       .  S
Zr1137     O1163   2.427       .  S
Zr1137     O1141   2.384       .  S
Zr1137     O1144   2.391       .  S
Zr1138     O1164   2.435       .  S
Zr1138     O1165   2.437       .  S
Zr1138     O1140   2.437       .  S
Zr1138     O1141   2.389       .  S
Zr1138     O1142   2.378       .  S
O1139      H1176   0.990       .  S
O1140      H1171   0.990       .  S
O1140      H1185   0.989       .  S
O1142      H1168   0.963       .  S
O1143     Zr1153   2.381       .  S
O1144     Zr1153   2.383       .  S
O1144      H1169   0.966       .  S
C1145      C2693   1.487       .  S
C1146      C2626   1.471       .  S
C1147      C3237   1.493       .  S
O1148      H1184   0.990       .  S
O1149      C1151   1.281       .  A
O1150      C1151   1.284       .  A
C1151      C2642   1.470       .  S
O1152     Zr1153   2.440       .  S
O1152      H1181   0.990       .  S
Zr1153     O1156   2.437       .  S
Zr1153     O1157   2.441       .  S
Zr1153     O1158   2.395       .  S
O1154      C1159   1.286       .  A
O1155      H1172   0.990       .  S
O1155      H1187   0.990       .  S
O1156      H1173   0.990       .  S
O1157      H1177   0.990       .  S
O1157      H1186   0.990       .  S
O1158      C1159   1.276       .  A
C1159      C2677   1.484       .  S
O1160      H1179   0.991       .  S
O1160      H1183   0.989       .  S
O1161      H1175   0.989       .  S
O1161      H1182   0.990       .  S
O1162      C1166   1.288       .  A
O1163      C1166   1.285       .  A
O1164      H1174   0.990       .  S
O1165      H1178   0.990       .  S
C1166      C2661   1.493       .  S
Zr1189     O1190   2.440       .  S
Zr1189     O1191   2.457       .  S
Zr1189     O1192   2.462       .  S
Zr1189     O1195   2.449       .  S
Zr1189     O1197   2.383       .  S
Zr1189     O1198   2.388       .  S
Zr1189     O1199   2.413       .  S
Zr1189     O1200   2.403       .  S
O1190      H1246   0.989       .  S
O1190      H1254   0.991       .  S
O1191      C1211   1.287       .  A
O1192      C1213   1.289       .  A
O1193     Zr1203   2.415       .  S
O1193      C1212   1.281       .  A
O1194     Zr1202   2.420       .  S
O1194      C1213   1.281       .  A
O1195      C1212   1.288       .  A
O1196     Zr1204   2.419       .  S
O1196      C1211   1.281       .  A
O1197     Zr1202   2.394       .  S
O1197     Zr1204   2.381       .  S
O1198     Zr1203   2.402       .  S
O1198     Zr1204   2.376       .  S
O1198      H1233   0.966       .  S
O1199     Zr1202   2.401       .  S
O1199     Zr1219   2.381       .  S
O1199      H1236   0.964       .  S
O1200     Zr1203   2.389       .  S
O1200     Zr1219   2.383       .  S
Zr1201     O1226   2.436       .  S
Zr1201     O1220   2.462       .  S
Zr1201     O1228   2.462       .  S
Zr1201     O1216   2.456       .  S
Zr1201     O1207   2.402       .  S
Zr1201     O1208   2.414       .  S
Zr1201     O1209   2.380       .  S
Zr1201     O1210   2.384       .  S
Zr1202     O1221   2.436       .  S
Zr1202     O1214   2.435       .  S
Zr1202     O1215   2.406       .  S
Zr1202     O1208   2.396       .  S
Zr1202     O1209   2.397       .  S
Zr1203     O1205   2.435       .  S
Zr1203     O1227   2.438       .  S
Zr1203     O1229   2.422       .  S
Zr1203     O1207   2.380       .  S
Zr1203     O1210   2.390       .  S
Zr1204     O1230   2.436       .  S
Zr1204     O1231   2.436       .  S
Zr1204     O1206   2.436       .  S
Zr1204     O1207   2.390       .  S
Zr1204     O1208   2.398       .  S
O1205      H1242   0.990       .  S
O1206      H1237   0.990       .  S
O1206      H1251   0.990       .  S
O1208      H1234   0.966       .  S
O1209     Zr1219   2.382       .  S
O1210     Zr1219   2.383       .  S
O1210      H1235   0.966       .  S
C1211      C2565   1.494       .  S
C1212      C2597   1.476       .  S
C1213      C3173   1.481       .  S
O1214      H1250   0.990       .  S
O1215      C1217   1.279       .  A
O1216      C1217   1.285       .  A
C1217      C2610   1.477       .  S
O1218     Zr1219   2.440       .  S
O1218      H1247   0.991       .  S
Zr1219     O1222   2.437       .  S
Zr1219     O1223   2.441       .  S
Zr1219     O1224   2.401       .  S
O1220      C1225   1.289       .  A
O1221      H1238   0.990       .  S
O1221      H1253   0.990       .  S
O1222      H1239   0.990       .  S
O1223      H1243   0.990       .  S
O1223      H1252   0.989       .  S
O1224      C1225   1.277       .  A
C1225      C2578   1.479       .  S
O1226      H1245   0.991       .  S
O1226      H1249   0.990       .  S
O1227      H1241   0.990       .  S
O1227      H1248   0.990       .  S
O1228      C1232   1.288       .  A
O1229      C1232   1.285       .  A
O1230      H1240   0.990       .  S
O1231      H1244   0.990       .  S
C1232      C2738   1.507       .  S
Zr1255     O1256   2.443       .  S
Zr1255     O1257   2.451       .  S
Zr1255     O1258   2.452       .  S
Zr1255     O1261   2.457       .  S
Zr1255     O1263   2.383       .  S
Zr1255     O1264   2.389       .  S
Zr1255     O1265   2.415       .  S
Zr1255     O1266   2.403       .  S
O1256      H1312   0.990       .  S
O1256      H1320   0.991       .  S
O1257      C1277   1.285       .  A
O1258      C1279   1.287       .  A
O1259     Zr1269   2.418       .  S
O1259      C1278   1.281       .  A
O1260     Zr1268   2.418       .  S
O1260      C1279   1.280       .  A
O1261      C1278   1.288       .  A
O1262     Zr1270   2.408       .  S
O1262      C1277   1.279       .  A
O1263     Zr1268   2.397       .  S
O1263     Zr1270   2.384       .  S
O1264     Zr1269   2.393       .  S
O1264     Zr1270   2.379       .  S
O1264      H1299   0.966       .  S
O1265     Zr1268   2.400       .  S
O1265     Zr1285   2.383       .  S
O1265      H1302   0.964       .  S
O1266     Zr1269   2.386       .  S
O1266     Zr1285   2.385       .  S
Zr1267     O1292   2.440       .  S
Zr1267     O1286   2.464       .  S
Zr1267     O1294   2.446       .  S
Zr1267     O1282   2.466       .  S
Zr1267     O1273   2.407       .  S
Zr1267     O1274   2.413       .  S
Zr1267     O1275   2.377       .  S
Zr1267     O1276   2.384       .  S
Zr1268     O1287   2.436       .  S
Zr1268     O1280   2.436       .  S
Zr1268     O1281   2.423       .  S
Zr1268     O1274   2.397       .  S
Zr1268     O1275   2.397       .  S
Zr1269     O1271   2.433       .  S
Zr1269     O1293   2.436       .  S
Zr1269     O1295   2.427       .  S
Zr1269     O1273   2.383       .  S
Zr1269     O1276   2.395       .  S
Zr1270     O1296   2.434       .  S
Zr1270     O1297   2.436       .  S
Zr1270     O1272   2.438       .  S
Zr1270     O1273   2.389       .  S
Zr1270     O1274   2.384       .  S
O1271      H1308   0.990       .  S
O1272      H1303   0.990       .  S
O1272      H1317   0.990       .  S
O1274      H1300   0.964       .  S
O1275     Zr1285   2.385       .  S
O1276     Zr1285   2.380       .  S
O1276      H1301   0.966       .  S
C1277      C2581   1.477       .  S
C1278      C2533   1.476       .  S
C1279      C3141   1.475       .  S
O1280      H1316   0.990       .  S
O1281      C1283   1.283       .  A
O1282      C1283   1.289       .  A
C1283      C2546   1.483       .  S
O1284     Zr1285   2.441       .  S
O1284      H1313   0.990       .  S
Zr1285     O1288   2.437       .  S
Zr1285     O1289   2.439       .  S
Zr1285     O1290   2.401       .  S
O1286      C1291   1.289       .  A
O1287      H1304   0.990       .  S
O1287      H1319   0.990       .  S
O1288      H1305   0.990       .  S
O1289      H1309   0.990       .  S
O1289      H1318   0.990       .  S
O1290      C1291   1.278       .  A
C1291      C2562   1.490       .  S
O1292      H1311   0.990       .  S
O1292      H1315   0.990       .  S
O1293      H1307   0.990       .  S
O1293      H1314   0.990       .  S
O1294      C1298   1.288       .  A
O1295      C1298   1.282       .  A
O1296      H1306   0.990       .  S
O1297      H1310   0.990       .  S
C1298      C2658   1.497       .  S
Zr1321     O1322   2.438       .  S
Zr1321     O1323   2.460       .  S
Zr1321     O1324   2.447       .  S
Zr1321     O1327   2.459       .  S
Zr1321     O1329   2.382       .  S
Zr1321     O1330   2.387       .  S
Zr1321     O1331   2.418       .  S
Zr1321     O1332   2.396       .  S
O1322      H1378   0.990       .  S
O1322      H1386   0.991       .  S
O1323      C1343   1.287       .  A
O1324      C1345   1.284       .  A
O1325     Zr1335   2.418       .  S
O1325      C1344   1.283       .  A
O1326     Zr1334   2.428       .  S
O1326      C1345   1.282       .  A
O1327      C1344   1.288       .  A
O1328     Zr1336   2.405       .  S
O1328      C1343   1.278       .  A
O1329     Zr1334   2.394       .  S
O1329     Zr1336   2.385       .  S
O1330     Zr1335   2.394       .  S
O1330     Zr1336   2.384       .  S
O1330      H1365   0.966       .  S
O1331     Zr1334   2.396       .  S
O1331     Zr1351   2.384       .  S
O1331      H1368   0.964       .  S
O1332     Zr1335   2.384       .  S
O1332     Zr1351   2.383       .  S
Zr1333     O1358   2.440       .  S
Zr1333     O1352   2.458       .  S
Zr1333     O1360   2.454       .  S
Zr1333     O1348   2.452       .  S
Zr1333     O1339   2.402       .  S
Zr1333     O1340   2.417       .  S
Zr1333     O1341   2.384       .  S
Zr1333     O1342   2.382       .  S
Zr1334     O1353   2.437       .  S
Zr1334     O1346   2.436       .  S
Zr1334     O1347   2.413       .  S
Zr1334     O1340   2.404       .  S
Zr1334     O1341   2.401       .  S
Zr1335     O1337   2.435       .  S
Zr1335     O1359   2.437       .  S
Zr1335     O1361   2.430       .  S
Zr1335     O1339   2.381       .  S
Zr1335     O1342   2.395       .  S
Zr1336     O1362   2.438       .  S
Zr1336     O1363   2.436       .  S
Zr1336     O1338   2.437       .  S
Zr1336     O1339   2.387       .  S
Zr1336     O1340   2.390       .  S
O1337      H1374   0.990       .  S
O1338      H1369   0.990       .  S
O1338      H1383   0.990       .  S
O1340      H1366   0.965       .  S
O1341     Zr1351   2.381       .  S
O1342     Zr1351   2.382       .  S
O1342      H1367   0.966       .  S
C1343      C2466   1.489       .  S
C1344      C2498   1.480       .  S
C1345      C3557   1.480       .  S
O1346      H1382   0.990       .  S
O1347      C1349   1.282       .  A
O1348      C1349   1.286       .  A
C1349      C2725   1.474       .  S
O1350     Zr1351   2.438       .  S
O1350      H1379   0.991       .  S
Zr1351     O1354   2.438       .  S
Zr1351     O1355   2.439       .  S
Zr1351     O1356   2.402       .  S
O1352      C1357   1.287       .  A
O1353      H1370   0.990       .  S
O1353      H1385   0.990       .  S
O1354      H1371   0.990       .  S
O1355      H1375   0.990       .  S
O1355      H1384   0.990       .  S
O1356      C1357   1.278       .  A
C1357      C2485   1.485       .  S
O1358      H1377   0.990       .  S
O1358      H1381   0.989       .  S
O1359      H1373   0.990       .  S
O1359      H1380   0.990       .  S
O1360      C1364   1.288       .  A
O1361      C1364   1.284       .  A
O1362      H1372   0.990       .  S
O1363      H1376   0.990       .  S
C1364      C2514   1.498       .  S
Zr1387     O1388   2.442       .  S
Zr1387     O1389   2.471       .  S
Zr1387     O1390   2.452       .  S
Zr1387     O1393   2.458       .  S
Zr1387     O1395   2.381       .  S
Zr1387     O1396   2.385       .  S
Zr1387     O1397   2.419       .  S
Zr1387     O1398   2.401       .  S
O1388      H1444   0.989       .  S
O1388      H1452   0.991       .  S
O1389      C1409   1.290       .  A
O1390      C1411   1.287       .  A
O1391     Zr1401   2.402       .  S
O1391      C1410   1.278       .  A
O1392     Zr1400   2.441       .  S
O1392      C1411   1.284       .  A
O1393      C1410   1.288       .  A
O1394     Zr1402   2.396       .  S
O1394      C1409   1.277       .  A
O1395     Zr1400   2.394       .  S
O1395     Zr1402   2.387       .  S
O1396     Zr1401   2.398       .  S
O1396     Zr1402   2.378       .  S
O1396      H1431   0.965       .  S
O1397     Zr1400   2.398       .  S
O1397     Zr1417   2.387       .  S
O1397      H1434   0.964       .  S
O1398     Zr1401   2.381       .  S
O1398     Zr1417   2.381       .  S
Zr1399     O1424   2.441       .  S
Zr1399     O1418   2.461       .  S
Zr1399     O1426   2.465       .  S
Zr1399     O1414   2.451       .  S
Zr1399     O1405   2.397       .  S
Zr1399     O1406   2.416       .  S
Zr1399     O1407   2.387       .  S
Zr1399     O1408   2.382       .  S
Zr1400     O1419   2.438       .  S
Zr1400     O1412   2.434       .  S
Zr1400     O1413   2.425       .  S
Zr1400     O1406   2.403       .  S
Zr1400     O1407   2.405       .  S
Zr1401     O1403   2.434       .  S
Zr1401     O1425   2.441       .  S
Zr1401     O1427   2.415       .  S
Zr1401     O1405   2.380       .  S
Zr1401     O1408   2.391       .  S
Zr1402     O1428   2.435       .  S
Zr1402     O1429   2.434       .  S
Zr1402     O1404   2.436       .  S
Zr1402     O1405   2.376       .  S
Zr1402     O1406   2.387       .  S
O1403      H1440   0.990       .  S
O1404      H1435   0.990       .  S
O1404      H1449   0.989       .  S
O1406      H1432   0.964       .  S
O1407     Zr1417   2.381       .  S
O1408     Zr1417   2.382       .  S
O1408      H1433   0.966       .  S
C1409      C2482   1.488   1_565  S
C1410      C2434   1.468       .  S
C1411      C3493   1.483       .  S
O1412      H1448   0.990       .  S
O1413      C1415   1.283       .  A
O1414      C1415   1.287       .  A
C1415      C2645   1.478       .  S
O1416     Zr1417   2.439       .  S
O1416      H1445   0.990       .  S
Zr1417     O1420   2.437       .  S
Zr1417     O1421   2.440       .  S
Zr1417     O1422   2.402       .  S
O1418      C1423   1.287       .  A
O1419      H1436   0.990       .  S
O1419      H1451   0.990       .  S
O1420      H1437   0.990       .  S
O1421      H1441   0.990       .  S
O1421      H1450   0.989       .  S
O1422      C1423   1.278       .  A
C1423      C2469   1.485       .  S
O1424      H1443   0.990       .  S
O1424      H1447   0.989       .  S
O1425      H1439   0.990       .  S
O1425      H1446   0.990       .  S
O1426      C1430   1.291       .  A
O1427      C1430   1.279       .  A
O1428      H1438   0.990       .  S
O1429      H1442   0.990       .  S
C1430      C2450   1.501       .  S
Zr1453     O1454   2.437       .  S
Zr1453     O1455   2.454       .  S
Zr1453     O1456   2.475       .  S
Zr1453     O1459   2.469       .  S
Zr1453     O1461   2.385       .  S
Zr1453     O1462   2.391       .  S
Zr1453     O1463   2.416       .  S
Zr1453     O1464   2.399       .  S
O1454      H1510   0.988       .  S
O1454      H1518   0.990       .  S
O1455      C1475   1.286   1_545  A
O1456      C1477   1.291       .  A
O1457     Zr1467   2.420       .  S
O1457      C1476   1.282       .  A
O1458     Zr1466   2.426       .  S
O1458      C1477   1.284       .  A
O1459      C1476   1.290       .  A
O1460     Zr1468   2.396       .  S
O1460      C1475   1.277   1_545  A
O1461     Zr1466   2.391       .  S
O1461     Zr1468   2.385       .  S
O1462     Zr1467   2.393       .  S
O1462     Zr1468   2.382       .  S
O1462      H1497   0.966       .  S
O1463     Zr1466   2.395       .  S
O1463     Zr1483   2.388       .  S
O1463      H1500   0.964       .  S
O1464     Zr1467   2.385       .  S
O1464     Zr1483   2.379       .  S
Zr1465     O1490   2.437       .  S
Zr1465     O1484   2.461       .  S
Zr1465     O1492   2.479       .  S
Zr1465     O1480   2.448       .  S
Zr1465     O1471   2.400       .  S
Zr1465     O1472   2.414       .  S
Zr1465     O1473   2.389       .  S
Zr1465     O1474   2.376       .  S
Zr1466     O1485   2.437       .  S
Zr1466     O1478   2.437       .  S
Zr1466     O1479   2.415       .  S
Zr1466     O1472   2.402       .  S
Zr1466     O1473   2.400       .  S
Zr1467     O1469   2.434       .  S
Zr1467     O1491   2.439       .  S
Zr1467     O1493   2.416       .  S
Zr1467     O1471   2.381       .  S
Zr1467     O1474   2.389       .  S
Zr1468     O1494   2.436       .  S
Zr1468     O1495   2.436       .  S
Zr1468     O1470   2.437       .  S
Zr1468     O1471   2.383       .  S
Zr1468     O1472   2.381       .  S
O1469      H1506   0.990       .  S
O1470      H1501   0.990       .  S
O1470      H1515   0.990       .  S
O1472      H1498   0.965       .  S
O1473     Zr1483   2.378       .  S
O1474     Zr1483   2.381       .  S
O1474      H1499   0.966       .  S
C1475      C2389   1.480       .  S
C1476      C2421   1.480       .  S
C1477      C3413   1.497       .  S
O1478      H1514   0.990       .  S
O1479      C1481   1.281       .  A
O1480      C1481   1.285       .  A
C1481      C2613   1.472       .  S
O1482     Zr1483   2.438       .  S
O1482      H1511   0.990       .  S
Zr1483     O1486   2.437       .  S
Zr1483     O1487   2.440       .  S
Zr1483     O1488   2.393       .  S
O1484      C1489   1.288       .  A
O1485      H1502   0.990       .  S
O1485      H1517   0.990       .  S
O1486      H1503   0.990       .  S
O1487      H1507   0.990       .  S
O1487      H1516   0.989       .  S
O1488      C1489   1.277       .  A
C1489      C2402   1.503       .  S
O1490      H1509   0.991       .  S
O1490      H1513   0.990       .  S
O1491      H1505   0.990       .  S
O1491      H1512   0.990       .  S
O1492      C1496   1.292       .  A
O1493      C1496   1.283       .  A
O1494      H1504   0.990       .  S
O1495      H1508   0.990       .  S
C1496      C2517   1.507       .  S
Zr1519     O1520   2.442       .  S
Zr1519     O1521   2.465       .  S
Zr1519     O1522   2.478       .  S
Zr1519     O1525   2.464       .  S
Zr1519     O1527   2.384       .  S
Zr1519     O1528   2.396       .  S
Zr1519     O1529   2.417       .  S
Zr1519     O1530   2.406       .  S
O1520      H1576   0.990       .  S
O1520      H1584   0.991       .  S
O1521      C1541   1.288       .  A
O1522      C1543   1.291       .  A
O1523     Zr1533   2.426       .  S
O1523      C1542   1.283       .  A
O1524     Zr1532   2.429       .  S
O1524      C1543   1.282       .  A
O1525      C1542   1.290       .  A
O1526     Zr1534   2.396       .  S
O1526      C1541   1.277       .  A
O1527     Zr1532   2.397       .  S
O1527     Zr1534   2.387       .  S
O1528     Zr1533   2.396       .  S
O1528     Zr1534   2.380       .  S
O1528      H1563   0.966       .  S
O1529     Zr1532   2.403       .  S
O1529     Zr1549   2.383       .  S
O1529      H1566   0.964       .  S
O1530     Zr1533   2.384       .  S
O1530     Zr1549   2.377       .  S
Zr1531     O1556   2.442       .  S
Zr1531     O1550   2.448       .  S
Zr1531     O1558   2.442       .  S
Zr1531     O1546   2.460       .  S
Zr1531     O1537   2.403       .  S
Zr1531     O1538   2.408       .  S
Zr1531     O1539   2.380       .  S
Zr1531     O1540   2.387       .  S
Zr1532     O1551   2.437       .  S
Zr1532     O1544   2.434       .  S
Zr1532     O1545   2.424       .  S
Zr1532     O1538   2.402       .  S
Zr1532     O1539   2.400       .  S
Zr1533     O1535   2.433       .  S
Zr1533     O1557   2.438       .  S
Zr1533     O1559   2.424       .  S
Zr1533     O1537   2.385       .  S
Zr1533     O1540   2.394       .  S
Zr1534     O1560   2.439       .  S
Zr1534     O1561   2.436       .  S
Zr1534     O1536   2.437       .  S
Zr1534     O1537   2.384       .  S
Zr1534     O1538   2.387       .  S
O1535      H1572   0.990       .  S
O1536      H1567   0.990       .  S
O1536      H1581   0.990       .  S
O1538      H1564   0.965       .  S
O1539     Zr1549   2.386       .  S
O1540     Zr1549   2.380       .  S
O1540      H1565   0.966       .  S
C1541      C2405   1.506       .  S
C1542      C2370   1.483       .  S
C1543      C3365   1.491       .  S
O1544      H1580   0.990       .  S
O1545      C1547   1.282       .  A
O1546      C1547   1.287       .  A
C1547      C2549   1.481       .  S
O1548     Zr1549   2.440       .  S
O1548      H1577   0.990       .  S
Zr1549     O1552   2.436       .  S
Zr1549     O1553   2.442       .  S
Zr1549     O1554   2.397       .  S
O1550      C1555   1.285       .  A
O1551      H1568   0.990       .  S
O1551      H1583   0.990       .  S
O1552      H1569   0.990       .  S
O1553      H1573   0.990       .  S
O1553      H1582   0.990       .  S
O1554      C1555   1.278       .  A
C1555      C2386   1.483       .  S
O1556      H1575   0.990       .  S
O1556      H1579   0.990       .  S
O1557      H1571   0.990       .  S
O1557      H1578   0.990       .  S
O1558      C1562   1.285       .  A
O1559      C1562   1.282       .  A
O1560      H1570   0.990       .  S
O1561      H1574   0.990       .  S
C1562      C2453   1.475       .  S
Zr1585     O1586   2.440       .  S
Zr1585     O1587   2.467       .  S
Zr1585     O1588   2.475       .  S
Zr1585     O1591   2.468       .  S
Zr1585     O1593   2.383       .  S
Zr1585     O1594   2.397       .  S
Zr1585     O1595   2.417       .  S
Zr1585     O1596   2.407       .  S
O1586      H1642   0.989       .  S
O1586      H1650   0.990       .  S
O1587      C1607   1.288       .  A
O1588      C1609   1.290       .  A
O1589     Zr1599   2.429       .  S
O1589      C1608   1.283       .  A
O1590     Zr1598   2.423       .  S
O1590      C1609   1.283       .  A
O1591      C1608   1.290       .  A
O1592     Zr1600   2.397       .  S
O1592      C1607   1.278       .  A
O1593     Zr1598   2.391       .  S
O1593     Zr1600   2.389       .  S
O1594     Zr1599   2.401       .  S
O1594     Zr1600   2.382       .  S
O1594      H1629   0.966       .  S
O1595     Zr1598   2.391       .  S
O1595     Zr1615   2.383   1_545  S
O1595      H1632   0.962       .  S
O1596     Zr1599   2.382       .  S
O1596     Zr1615   2.383   1_545  S
Zr1597     O1622   2.441       .  S
Zr1597     O1616   2.458       .  S
Zr1597     O1624   2.455       .  S
Zr1597     O1612   2.471       .  S
Zr1597     O1603   2.404   1_565  S
Zr1597     O1604   2.407   1_565  S
Zr1597     O1605   2.382       .  S
Zr1597     O1606   2.386       .  S
Zr1598     O1617   2.437       .  S
Zr1598     O1610   2.436       .  S
Zr1598     O1611   2.404       .  S
Zr1598     O1604   2.404       .  S
Zr1598     O1605   2.399   1_545  S
Zr1599     O1601   2.435   1_545  S
Zr1599     O1623   2.439       .  S
Zr1599     O1625   2.427       .  S
Zr1599     O1603   2.387       .  S
Zr1599     O1606   2.390   1_545  S
Zr1600     O1626   2.434       .  S
Zr1600     O1627   2.437       .  S
Zr1600     O1602   2.438       .  S
Zr1600     O1603   2.379       .  S
Zr1600     O1604   2.382       .  S
O1601      H1638   0.990   1_565  S
O1602      H1633   0.990       .  S
O1602      H1647   0.990       .  S
O1604      H1630   0.964       .  S
O1605     Zr1615   2.382       .  S
O1606     Zr1615   2.377       .  S
O1606      H1631   0.966       .  S
C1607      C2322   1.488       .  S
C1608      C2418   1.488       .  S
C1609      C3058   1.488       .  S
O1610      H1646   0.990       .  S
O1611      C1613   1.278   1_545  A
O1612      C1613   1.292       .  A
C1613      C2338   1.482       .  S
O1614     Zr1615   2.439       .  S
O1614      H1643   0.990       .  S
Zr1615     O1618   2.438       .  S
Zr1615     O1619   2.438       .  S
Zr1615     O1620   2.399       .  S
O1616      C1621   1.287       .  A
O1617      H1634   0.990       .  S
O1617      H1649   0.990       .  S
O1618      H1635   0.990       .  S
O1619      H1639   0.990       .  S
O1619      H1648   0.990       .  S
O1620      C1621   1.278       .  A
C1621      C2306   1.485       .  S
O1622      H1641   0.991       .  S
O1622      H1645   0.990       .  S
O1623      H1637   0.990       .  S
O1623      H1644   0.990       .  S
O1624      C1628   1.288       .  A
O1625      C1628   1.284   1_545  A
O1626      H1636   0.990       .  S
O1627      H1640   0.990       .  S
C1628      C2354   1.483       .  S
Zr1651     O1652   2.437       .  S
Zr1651     O1653   2.465       .  S
Zr1651     O1654   2.474       .  S
Zr1651     O1657   2.451       .  S
Zr1651     O1659   2.379       .  S
Zr1651     O1660   2.393       .  S
Zr1651     O1661   2.414       .  S
Zr1651     O1662   2.404       .  S
O1652      H1708   0.988       .  S
O1652      H1716   0.990       .  S
O1653      C1673   1.288       .  A
O1654      C1675   1.291       .  A
O1655     Zr1665   2.415       .  S
O1655      C1674   1.281       .  A
O1656     Zr1664   2.437       .  S
O1656      C1675   1.286       .  A
O1657      C1674   1.286       .  A
O1658     Zr1666   2.399       .  S
O1658      C1673   1.278       .  A
O1659     Zr1664   2.392       .  S
O1659     Zr1666   2.386       .  S
O1660     Zr1665   2.399       .  S
O1660     Zr1666   2.381       .  S
O1660      H1695   0.966       .  S
O1661     Zr1664   2.394       .  S
O1661     Zr1681   2.392       .  S
O1661      H1698   0.964       .  S
O1662     Zr1665   2.384       .  S
O1662     Zr1681   2.384       .  S
Zr1663     O1688   2.443       .  S
Zr1663     O1682   2.462       .  S
Zr1663     O1690   2.450       .  S
Zr1663     O1678   2.441       .  S
Zr1663     O1669   2.400       .  S
Zr1663     O1670   2.416       .  S
Zr1663     O1671   2.386       .  S
Zr1663     O1672   2.381       .  S
Zr1664     O1683   2.433       .  S
Zr1664     O1676   2.435       .  S
Zr1664     O1677   2.410       .  S
Zr1664     O1670   2.407       .  S
Zr1664     O1671   2.406       .  S
Zr1665     O1667   2.435       .  S
Zr1665     O1689   2.436       .  S
Zr1665     O1691   2.426       .  S
Zr1665     O1669   2.381       .  S
Zr1665     O1672   2.394       .  S
Zr1666     O1692   2.436       .  S
Zr1666     O1693   2.436       .  S
Zr1666     O1668   2.436       .  S
Zr1666     O1669   2.383       .  S
Zr1666     O1670   2.378       .  S
O1667      H1704   0.990       .  S
O1668      H1699   0.990       .  S
O1668      H1713   0.990       .  S
O1670      H1696   0.964       .  S
O1671     Zr1681   2.378       .  S
O1672     Zr1681   2.382       .  S
O1672      H1697   0.966       .  S
C1673      C2309   1.488       .  S
C1674      C2373   1.472       .  S
C1675      C3010   1.503       .  S
O1676      H1712   0.990       .  S
O1677      C1679   1.280       .  A
O1678      C1679   1.284       .  A
C1679      C2274   1.462       .  S
O1680     Zr1681   2.434       .  S
O1680      H1709   0.990       .  S
Zr1681     O1684   2.435       .  S
Zr1681     O1685   2.438       .  S
Zr1681     O1686   2.407       .  S
O1682      C1687   1.287       .  A
O1683      H1700   0.990       .  S
O1683      H1715   0.990       .  S
O1684      H1701   0.990       .  S
O1685      H1705   0.991       .  S
O1685      H1714   0.990       .  S
O1686      C1687   1.278       .  A
C1687      C2325   1.491       .  S
O1688      H1707   0.991       .  S
O1688      H1711   0.990       .  S
O1689      H1703   0.990       .  S
O1689      H1710   0.990       .  S
O1690      C1694   1.287       .  A
O1691      C1694   1.283       .  A
O1692      H1702   0.990       .  S
O1693      H1706   0.990       .  S
C1694      C2290   1.474       .  S
Zr1717     O1718   2.442       .  S
Zr1717     O1719   2.460       .  S
Zr1717     O1720   2.467       .  S
Zr1717     O1723   2.453       .  S
Zr1717     O1725   2.381       .  S
Zr1717     O1726   2.394       .  S
Zr1717     O1727   2.418       .  S
Zr1717     O1728   2.396       .  S
O1718      H1774   0.990       .  S
O1718      H1782   0.991       .  S
O1719      C1739   1.288       .  A
O1720      C1741   1.290       .  A
O1721     Zr1731   2.419       .  S
O1721      C1740   1.282       .  A
O1722     Zr1730   2.425       .  S
O1722      C1741   1.281       .  A
O1723      C1740   1.287       .  A
O1724     Zr1732   2.397       .  S
O1724      C1739   1.275       .  A
O1725     Zr1730   2.397       .  S
O1725     Zr1732   2.388       .  S
O1726     Zr1731   2.403       .  S
O1726     Zr1732   2.381       .  S
O1726      H1761   0.965       .  S
O1727     Zr1730   2.396       .  S
O1727     Zr1747   2.386       .  S
O1727      H1764   0.964       .  S
O1728     Zr1731   2.381       .  S
O1728     Zr1747   2.375       .  S
Zr1729     O1754   2.442       .  S
Zr1729     O1748   2.468       .  S
Zr1729     O1756   2.456       .  S
Zr1729     O1744   2.450       .  S
Zr1729     O1735   2.405       .  S
Zr1729     O1736   2.418       .  S
Zr1729     O1737   2.383       .  S
Zr1729     O1738   2.382       .  S
Zr1730     O1749   2.436       .  S
Zr1730     O1742   2.435       .  S
Zr1730     O1743   2.414       .  S
Zr1730     O1736   2.398       .  S
Zr1730     O1737   2.400       .  S
Zr1731     O1733   2.435       .  S
Zr1731     O1755   2.437       .  S
Zr1731     O1757   2.432       .  S
Zr1731     O1735   2.383       .  S
Zr1731     O1738   2.393       .  S
Zr1732     O1758   2.433       .  S
Zr1732     O1759   2.435       .  S
Zr1732     O1734   2.439       .  S
Zr1732     O1735   2.387       .  S
Zr1732     O1736   2.377       .  S
O1733      H1770   0.990       .  S
O1734      H1765   0.990       .  S
O1734      H1779   0.990       .  S
O1736      H1762   0.962       .  S
O1737     Zr1747   2.383       .  S
O1738     Zr1747   2.383       .  S
O1738      H1763   0.966       .  S
C1739      C2242   1.480       .  S
C1740      C2501   1.468       .  S
C1741      C2949   1.483       .  S
O1742      H1778   0.990       .  S
O1743      C1745   1.281       .  A
O1744      C1745   1.286       .  A
C1745      C2258   1.462       .  S
O1746     Zr1747   2.438       .  S
O1746      H1775   0.991       .  S
Zr1747     O1750   2.438       .  S
Zr1747     O1751   2.439       .  S
Zr1747     O1752   2.393       .  S
O1748      C1753   1.290       .  A
O1749      H1766   0.990       .  S
O1749      H1781   0.990       .  S
O1750      H1767   0.990       .  S
O1751      H1771   0.989       .  S
O1751      H1780   0.989       .  S
O1752      C1753   1.274       .  A
C1753      C2226   1.486       .  S
O1754      H1773   0.990       .  S
O1754      H1777   0.990       .  S
O1755      H1769   0.990       .  S
O1755      H1776   0.989       .  S
O1756      C1760   1.289       .  A
O1757      C1760   1.284       .  A
O1758      H1768   0.989       .  S
O1759      H1772   0.990       .  S
C1760      C2293   1.497       .  S
Zr1783     O1784   2.442       .  S
Zr1783     O1785   2.461       .  S
Zr1783     O1786   2.462       .  S
Zr1783     O1789   2.445       .  S
Zr1783     O1791   2.379       .  S
Zr1783     O1792   2.390       .  S
Zr1783     O1793   2.414       .  S
Zr1783     O1794   2.405       .  S
O1784      H1840   0.990       .  S
O1784      H1848   0.991       .  S
O1785      C1805   1.288       .  A
O1786      C1807   1.289       .  A
O1787     Zr1797   2.424       .  S
O1787      C1806   1.283       .  A
O1788     Zr1796   2.418       .  S
O1788      C1807   1.280       .  A
O1789      C1806   1.286       .  A
O1790     Zr1798   2.409       .  S
O1790      C1805   1.278       .  A
O1791     Zr1796   2.395       .  S
O1791     Zr1798   2.385       .  S
O1792     Zr1797   2.401       .  S
O1792     Zr1798   2.379       .  S
O1792      H1827   0.966       .  S
O1793     Zr1796   2.391       .  S
O1793     Zr1813   2.387       .  S
O1793      H1830   0.963       .  S
O1794     Zr1797   2.384       .  S
O1794     Zr1813   2.383       .  S
Zr1795     O1820   2.442       .  S
Zr1795     O1814   2.457   1_565  S
Zr1795     O1822   2.455       .  S
Zr1795     O1810   2.453       .  S
Zr1795     O1801   2.400       .  S
Zr1795     O1802   2.415       .  S
Zr1795     O1803   2.381       .  S
Zr1795     O1804   2.384       .  S
Zr1796     O1815   2.435       .  S
Zr1796     O1808   2.435       .  S
Zr1796     O1809   2.399       .  S
Zr1796     O1802   2.402       .  S
Zr1796     O1803   2.394       .  S
Zr1797     O1799   2.436       .  S
Zr1797     O1821   2.440       .  S
Zr1797     O1823   2.432       .  S
Zr1797     O1801   2.381       .  S
Zr1797     O1804   2.402       .  S
Zr1798     O1824   2.438       .  S
Zr1798     O1825   2.435       .  S
Zr1798     O1800   2.438       .  S
Zr1798     O1801   2.383       .  S
Zr1798     O1802   2.388       .  S
O1799      H1836   0.990       .  S
O1800      H1831   0.990       .  S
O1800      H1845   0.990       .  S
O1802      H1828   0.964       .  S
O1803     Zr1813   2.375       .  S
O1804     Zr1813   2.387       .  S
O1804      H1829   0.966       .  S
C1805      C2229   1.488       .  S
C1806      C2437   1.471       .  S
C1807      C2917   1.482       .  S
O1808      H1844   0.990       .  S
O1809      C1811   1.279       .  A
O1810      C1811   1.286       .  A
C1811      C2213   1.466       .  S
O1812     Zr1813   2.439       .  S
O1812      H1841   0.990       .  S
Zr1813     O1816   2.440       .  S
Zr1813     O1817   2.441       .  S
Zr1813     O1818   2.402   1_565  S
O1814      C1819   1.288       .  A
O1815      H1832   0.990       .  S
O1815      H1847   0.990       .  S
O1816      H1833   0.990       .  S
O1817      H1837   0.989   1_565  S
O1817      H1846   0.989       .  S
O1818      C1819   1.276       .  A
C1819      C2245   1.482       .  S
O1820      H1839   0.991       .  S
O1820      H1843   0.990   1_565  S
O1821      H1835   0.990       .  S
O1821      H1842   0.990       .  S
O1822      C1826   1.289       .  A
O1823      C1826   1.284       .  A
O1824      H1834   0.990       .  S
O1825      H1838   0.990       .  S
C1826      C2357   1.486       .  S
Zr1849     O1850   2.438       .  S
Zr1849     O1851   2.464       .  S
Zr1849     O1852   2.470       .  S
Zr1849     O1855   2.445       .  S
Zr1849     O1857   2.376       .  S
Zr1849     O1858   2.392       .  S
Zr1849     O1859   2.422       .  S
Zr1849     O1860   2.407       .  S
O1850      H1906   0.990       .  S
O1850      H1914   0.989       .  S
O1851      C1871   1.288       .  A
O1852      C1873   1.290       .  A
O1853     Zr1863   2.427       .  S
O1853      C1872   1.284       .  A
O1854     Zr1862   2.438       .  S
O1854      C1873   1.286       .  A
O1855      C1872   1.285       .  A
O1856     Zr1864   2.397       .  S
O1856      C1871   1.275       .  A
O1857     Zr1862   2.397       .  S
O1857     Zr1864   2.386       .  S
O1858     Zr1863   2.403       .  S
O1858     Zr1864   2.382       .  S
O1858      H1893   0.966       .  S
O1859     Zr1862   2.392       .  S
O1859     Zr1879   2.391   1_545  S
O1859      H1896   0.963       .  S
O1860     Zr1863   2.384       .  S
O1860     Zr1879   2.388   1_545  S
Zr1861     O1886   2.442       .  S
Zr1861     O1880   2.458       .  S
Zr1861     O1888   2.453       .  S
Zr1861     O1876   2.462       .  S
Zr1861     O1867   2.399   1_565  S
Zr1861     O1868   2.413   1_565  S
Zr1861     O1869   2.385       .  S
Zr1861     O1870   2.384       .  S
Zr1862     O1881   2.434   1_545  S
Zr1862     O1874   2.435       .  S
Zr1862     O1875   2.416       .  S
Zr1862     O1868   2.407       .  S
Zr1862     O1869   2.400   1_545  S
Zr1863     O1865   2.438   1_545  S
Zr1863     O1887   2.438       .  S
Zr1863     O1889   2.428       .  S
Zr1863     O1867   2.385       .  S
Zr1863     O1870   2.393   1_545  S
Zr1864     O1890   2.436       .  S
Zr1864     O1891   2.436       .  S
Zr1864     O1866   2.437       .  S
Zr1864     O1867   2.384       .  S
Zr1864     O1868   2.379       .  S
O1865      H1902   0.990   1_565  S
O1866      H1897   0.990       .  S
O1866      H1911   0.990       .  S
O1868      H1894   0.964       .  S
O1869     Zr1879   2.383       .  S
O1870     Zr1879   2.382       .  S
O1870      H1895   0.966       .  S
C1871      C2181   1.488       .  S
C1872      C2709   1.472       .  S
C1873      C2853   1.498       .  S
O1874      H1910   0.990       .  S
O1875      C1877   1.282   1_545  A
O1876      C1877   1.288       .  A
C1877      C2210   1.474       .  S
O1878     Zr1879   2.438       .  S
O1878      H1907   0.990       .  S
Zr1879     O1882   2.439       .  S
Zr1879     O1883   2.438       .  S
Zr1879     O1884   2.407       .  S
O1880      C1885   1.288       .  A
O1881      H1898   0.990   1_565  S
O1881      H1913   0.990       .  S
O1882      H1899   0.990       .  S
O1883      H1903   0.990       .  S
O1883      H1912   0.990       .  S
O1884      C1885   1.279       .  A
C1885      C2162   1.488       .  S
O1886      H1905   0.991       .  S
O1886      H1909   0.989       .  S
O1887      H1901   0.990       .  S
O1887      H1908   0.990       .  S
O1888      C1892   1.287       .  A
O1889      C1892   1.284   1_545  A
O1890      H1900   0.990       .  S
O1891      H1904   0.990       .  S
C1892      C2194   1.479       .  S
Zr1915     O1916   2.442       .  S
Zr1915     O1917   2.458       .  S
Zr1915     O1918   2.466       .  S
Zr1915     O1921   2.446       .  S
Zr1915     O1923   2.381       .  S
Zr1915     O1924   2.391       .  S
Zr1915     O1925   2.414       .  S
Zr1915     O1926   2.406       .  S
O1916      H1972   0.990       .  S
O1916      H1980   0.991       .  S
O1917      C1937   1.286       .  A
O1918      C1939   1.289       .  A
O1919     Zr1929   2.411       .  S
O1919      C1938   1.280       .  A
O1920     Zr1928   2.419       .  S
O1920      C1939   1.280       .  A
O1921      C1938   1.287       .  A
O1922     Zr1930   2.398       .  S
O1922      C1937   1.278       .  A
O1923     Zr1928   2.393       .  S
O1923     Zr1930   2.389       .  S
O1924     Zr1929   2.394       .  S
O1924     Zr1930   2.378       .  S
O1924      H1959   0.966       .  S
O1925     Zr1928   2.392       .  S
O1925     Zr1945   2.391       .  S
O1925      H1962   0.964       .  S
O1926     Zr1929   2.383       .  S
O1926     Zr1945   2.387       .  S
Zr1927     O1952   2.442       .  S
Zr1927     O1946   2.460       .  S
Zr1927     O1954   2.453       .  S
Zr1927     O1942   2.455       .  S
Zr1927     O1933   2.398       .  S
Zr1927     O1934   2.420       .  S
Zr1927     O1935   2.382       .  S
Zr1927     O1936   2.385       .  S
Zr1928     O1947   2.435       .  S
Zr1928     O1940   2.433       .  S
Zr1928     O1941   2.404       .  S
Zr1928     O1934   2.402       .  S
Zr1928     O1935   2.399       .  S
Zr1929     O1931   2.433       .  S
Zr1929     O1953   2.441       .  S
Zr1929     O1955   2.412       .  S
Zr1929     O1933   2.381       .  S
Zr1929     O1936   2.393       .  S
Zr1930     O1956   2.436       .  S
Zr1930     O1957   2.437       .  S
Zr1930     O1932   2.439       .  S
Zr1930     O1933   2.376       .  S
Zr1930     O1934   2.384       .  S
O1931      H1968   0.990       .  S
O1932      H1963   0.990       .  S
O1932      H1977   0.990       .  S
O1934      H1960   0.964       .  S
O1935     Zr1945   2.379       .  S
O1936     Zr1945   2.382       .  S
O1936      H1961   0.966       .  S
C1937      C2165   1.482       .  S
C1938      C2629   1.470       .  S
C1939      C2821   1.492       .  S
O1940      H1976   0.990       .  S
O1941      C1943   1.276       .  A
O1942      C1943   1.288       .  A
C1943      C2261   1.486       .  S
O1944     Zr1945   2.440       .  S
O1944      H1973   0.990       .  S
Zr1945     O1948   2.437       .  S
Zr1945     O1949   2.439       .  S
Zr1945     O1950   2.410       .  S
O1946      C1951   1.288       .  A
O1947      H1964   0.990       .  S
O1947      H1979   0.990       .  S
O1948      H1965   0.990       .  S
O1949      H1969   0.990       .  S
O1949      H1978   0.990       .  S
O1950      C1951   1.278       .  A
C1951      C2178   1.489       .  S
O1952      H1971   0.990       .  S
O1952      H1975   0.990       .  S
O1953      H1967   0.990       .  S
O1953      H1974   0.990       .  S
O1954      C1958   1.287       .  A
O1955      C1958   1.281       .  A
O1956      H1966   0.990       .  S
O1957      H1970   0.990       .  S
C1958      C2146   1.472       .  S
Zr1981     O1982   2.441       .  S
Zr1981     O1983   2.455       .  S
Zr1981     O1984   2.462       .  S
Zr1981     O1987   2.458       .  S
Zr1981     O1989   2.382       .  S
Zr1981     O1990   2.386       .  S
Zr1981     O1991   2.414       .  S
Zr1981     O1992   2.402       .  S
O1982      H2038   0.990       .  S
O1982      H2046   0.991       .  S
O1983      C2003   1.286       .  A
O1984      C2005   1.288       .  A
O1985     Zr1995   2.415       .  S
O1985      C2004   1.281       .  A
O1986     Zr1994   2.417       .  S
O1986      C2005   1.280       .  A
O1987      C2004   1.289       .  A
O1988     Zr1996   2.412       .  S
O1988      C2003   1.280       .  A
O1989     Zr1994   2.392       .  S
O1989     Zr1996   2.382       .  S
O1990     Zr1995   2.399       .  S
O1990     Zr1996   2.379       .  S
O1990      H2025   0.966       .  S
O1991     Zr1994   2.396       .  S
O1991     Zr2011   2.389       .  S
O1991      H2028   0.965       .  S
O1992     Zr1995   2.387       .  S
O1992     Zr2011   2.387       .  S
Zr1993     O2018   2.441       .  S
Zr1993     O2012   2.458       .  S
Zr1993     O2020   2.456       .  S
Zr1993     O2008   2.449       .  S
Zr1993     O1999   2.399       .  S
Zr1993     O2000   2.419       .  S
Zr1993     O2001   2.379       .  S
Zr1993     O2002   2.381       .  S
Zr1994     O2013   2.438       .  S
Zr1994     O2006   2.435       .  S
Zr1994     O2007   2.400       .  S
Zr1994     O2000   2.403       .  S
Zr1994     O2001   2.393       .  S
Zr1995     O1997   2.436       .  S
Zr1995     O2019   2.438       .  S
Zr1995     O2021   2.415       .  S
Zr1995     O1999   2.383       .  S
Zr1995     O2002   2.396       .  S
Zr1996     O2022   2.435       .  S
Zr1996     O2023   2.437       .  S
Zr1996     O1998   2.437       .  S
Zr1996     O1999   2.387       .  S
Zr1996     O2000   2.394       .  S
O1997      H2034   0.990       .  S
O1998      H2029   0.990       .  S
O1998      H2043   0.990       .  S
O2000      H2026   0.965       .  S
O2001     Zr2011   2.373       .  S
O2002     Zr2011   2.383       .  S
O2002      H2027   0.966       .  S
C2003      C2130   1.489       .  S
C2004      C2594   1.477       .  S
C2005      C2770   1.483       .  S
O2006      H2042   0.990       .  S
O2007      C2009   1.279       .  A
O2008      C2009   1.285       .  A
C2009      C2277   1.466       .  S
O2010     Zr2011   2.438       .  S
O2010      H2039   0.990       .  S
Zr2011     O2014   2.439       .  S
Zr2011     O2015   2.437       .  S
Zr2011     O2016   2.402       .  S
O2012      C2017   1.287       .  A
O2013      H2030   0.990       .  S
O2013      H2045   0.990       .  S
O2014      H2031   0.990       .  S
O2015      H2035   0.990       .  S
O2015      H2044   0.989       .  S
O2016      C2017   1.278       .  A
C2017      C2117   1.489       .  S
O2018      H2037   0.990       .  S
O2018      H2041   0.990       .  S
O2019      H2033   0.990       .  S
O2019      H2040   0.990       .  S
O2020      C2024   1.288       .  A
O2021      C2024   1.281       .  A
O2022      H2032   0.990       .  S
O2023      H2036   0.990       .  S
C2024      C2149   1.478       .  S
Zr2047     O2048   2.437       .  S
Zr2047     O2049   2.464       .  S
Zr2047     O2050   2.464       .  S
Zr2047     O2053   2.466       .  S
Zr2047     O2055   2.384       .  S
Zr2047     O2056   2.388       .  S
Zr2047     O2057   2.420       .  S
Zr2047     O2058   2.401       .  S
O2048      H2104   0.989       .  S
O2048      H2112   0.990       .  S
O2049      C2069   1.288       .  A
O2050      C2071   1.289       .  A
O2051     Zr2061   2.429       .  S
O2051      C2070   1.283       .  A
O2052     Zr2060   2.435       .  S
O2052      C2071   1.287       .  A
O2053      C2070   1.290       .  A
O2054     Zr2062   2.389       .  S
O2054      C2069   1.275       .  A
O2055     Zr2060   2.397       .  S
O2055     Zr2062   2.382       .  S
O2056     Zr2061   2.398       .  S
O2056     Zr2062   2.382       .  S
O2056      H2091   0.966       .  S
O2057     Zr2060   2.396       .  S
O2057     Zr2077   2.391       .  S
O2057      H2094   0.964       .  S
O2058     Zr2061   2.380       .  S
O2058     Zr2077   2.387       .  S
Zr2059     O2084   2.438   1_565  S
Zr2059     O2078   2.454   1_565  S
Zr2059     O2086   2.477       .  S
Zr2059     O2074   2.460       .  S
Zr2059     O2065   2.400       .  S
Zr2059     O2066   2.408       .  S
Zr2059     O2067   2.387       .  S
Zr2059     O2068   2.388       .  S
Zr2060     O2079   2.433       .  S
Zr2060     O2072   2.436       .  S
Zr2060     O2073   2.423       .  S
Zr2060     O2066   2.402       .  S
Zr2060     O2067   2.397       .  S
Zr2061     O2063   2.436       .  S
Zr2061     O2085   2.436       .  S
Zr2061     O2087   2.418       .  S
Zr2061     O2065   2.394       .  S
Zr2061     O2068   2.398       .  S
Zr2062     O2088   2.437       .  S
Zr2062     O2089   2.437       .  S
Zr2062     O2064   2.439       .  S
Zr2062     O2065   2.378       .  S
Zr2062     O2066   2.374       .  S
O2063      H2100   0.990       .  S
O2064      H2095   0.990       .  S
O2064      H2109   0.989       .  S
O2066      H2092   0.962       .  S
O2067     Zr2077   2.379       .  S
O2068     Zr2077   2.382       .  S
O2068      H2093   0.966   1_565  S
C2069      C2114   1.484       .  S
C2070      C2530   1.493       .  S
C2071      C2757   1.496       .  S
O2072      H2108   0.990       .  S
O2073      C2075   1.282       .  A
O2074      C2075   1.289       .  A
C2075      C2341   1.475       .  S
O2076     Zr2077   2.436       .  S
O2076      H2105   0.990       .  S
Zr2077     O2080   2.437   1_565  S
Zr2077     O2081   2.437   1_565  S
Zr2077     O2082   2.416   1_565  S
O2078      C2083   1.286       .  A
O2079      H2096   0.990       .  S
O2079      H2111   0.990       .  S
O2080      H2097   0.990       .  S
O2081      H2101   0.990       .  S
O2081      H2110   0.990       .  S
O2082      C2083   1.280       .  A
C2083      C2133   1.486       .  S
O2084      H2103   0.989       .  S
O2084      H2107   0.990   1_545  S
O2085      H2099   0.990       .  S
O2085      H2106   0.990       .  S
O2086      C2090   1.292       .  A
O2087      C2090   1.283       .  A
O2088      H2098   0.990       .  S
O2089      H2102   0.990       .  S
C2090      C2197   1.487       .  S
C2113      C2114   1.406       .  A
C2113      C2118   1.406       .  A
C2113      H2120   1.083       .  S
C2114      C2115   1.415       .  A
C2115      C2116   1.407       .  A
C2115      C2122   1.517       .  S
C2116      C2117   1.408       .  A
C2116      H2121   1.083       .  S
C2117      C2118   1.417       .  A
C2118      C2119   1.514       .  S
C2119      F2123   1.385       .  S
C2119      F2124   1.382       .  S
C2119      F2125   1.382       .  S
C2122      F2126   1.383       .  S
C2122      F2127   1.381       .  S
C2122      F2128   1.385       .  S
C2129      C2130   1.408       .  A
C2129      C2134   1.410       .  A
C2129      H2136   1.083       .  S
C2130      C2131   1.419       .  A
C2131      C2132   1.409       .  A
C2131      C2138   1.519       .  S
C2132      C2133   1.405       .  A
C2132      H2137   1.083       .  S
C2133      C2134   1.417       .  A
C2134      C2135   1.519       .  S
C2135      F2139   1.384       .  S
C2135      F2140   1.384       .  S
C2135      F2141   1.381       .  S
C2138      F2142   1.382       .  S
C2138      F2143   1.384       .  S
C2138      F2144   1.385       .  S
C2145      C2146   1.401       .  A
C2145      C2150   1.403       .  A
C2145      H2152   1.084       .  S
C2146      C2147   1.413       .  A
C2147      C2148   1.409       .  A
C2147      C2154   1.518       .  S
C2148      C2149   1.407       .  A
C2148      H2153   1.083       .  S
C2149      C2150   1.414       .  A
C2150      C2151   1.513       .  S
C2151      F2155   1.385       .  S
C2151      F2156   1.384       .  S
C2151      F2157   1.380       .  S
C2154      F2158   1.384       .  S
C2154      F2159   1.382       .  S
C2154      F2160   1.384       .  S
C2161      C2162   1.409       .  A
C2161      C2166   1.411       .  A
C2161      H2168   1.083       .  S
C2162      C2163   1.416       .  A
C2163      C2164   1.403       .  A
C2163      C2170   1.514       .  S
C2164      C2165   1.404       .  A
C2164      H2169   1.083       .  S
C2165      C2166   1.417       .  A
C2166      C2167   1.519       .  S
C2167      F2171   1.385       .  S
C2167      F2172   1.382       .  S
C2167      F2173   1.384       .  S
C2170      F2174   1.383       .  S
C2170      F2175   1.382       .  S
C2170      F2176   1.384       .  S
C2177      C2178   1.404       .  A
C2177      C2182   1.409       .  A
C2177      H2184   1.083       .  S
C2178      C2179   1.422       .  A
C2179      C2180   1.409       .  A
C2179      C2186   1.519       .  S
C2180      C2181   1.402       .  A
C2180      H2185   1.083       .  S
C2181      C2182   1.423       .  A
C2182      C2183   1.520       .  S
C2183      F2187   1.385       .  S
C2183      F2188   1.384       .  S
C2183      F2189   1.383       .  S
C2186      F2190   1.382       .  S
C2186      F2191   1.384       .  S
C2186      F2192   1.385       .  S
C2193      C2194   1.403   1_545  A
C2193      C2198   1.410       .  A
C2193      H2200   1.083       .  S
C2194      C2195   1.413       .  A
C2195      C2196   1.409       .  A
C2195      C2202   1.518       .  S
C2196      C2197   1.409       .  A
C2196      H2201   1.083       .  S
C2197      C2198   1.417   1_565  A
C2198      C2199   1.516       .  S
C2199      F2203   1.384       .  S
C2199      F2204   1.384       .  S
C2199      F2205   1.380       .  S
C2202      F2206   1.384       .  S
C2202      F2207   1.383       .  S
C2202      F2208   1.385       .  S
C2209      C2210   1.407   1_545  A
C2209      C2214   1.406   1_455  A
C2209      H2216   1.084       .  S
C2210      C2211   1.412       .  A
C2211      C2212   1.400   1_455  A
C2211      C2218   1.511       .  S
C2212      C2213   1.402       .  A
C2212      H2217   1.084       .  S
C2213      C2214   1.411   1_565  A
C2214      C2215   1.517       .  S
C2215      F2219   1.385       .  S
C2215      F2220   1.381       .  S
C2215      F2221   1.383       .  S
C2218      F2222   1.379       .  S
C2218      F2223   1.383       .  S
C2218      F2224   1.385       .  S
C2225      C2226   1.401       .  A
C2225      C2230   1.408       .  A
C2225      H2232   1.083       .  S
C2226      C2227   1.423       .  A
C2227      C2228   1.409       .  A
C2227      C2234   1.520       .  S
C2228      C2229   1.402       .  A
C2228      H2233   1.083       .  S
C2229      C2230   1.422       .  A
C2230      C2231   1.518       .  S
C2231      F2235   1.385       .  S
C2231      F2236   1.382       .  S
C2231      F2237   1.383       .  S
C2234      F2238   1.383       .  S
C2234      F2239   1.382       .  S
C2234      F2240   1.385       .  S
C2241      C2242   1.400       .  A
C2241      C2246   1.406       .  A
C2241      H2248   1.084       .  S
C2242      C2243   1.421       .  A
C2243      C2244   1.408       .  A
C2243      C2250   1.519       .  S
C2244      C2245   1.402       .  A
C2244      H2249   1.083       .  S
C2245      C2246   1.421       .  A
C2246      C2247   1.519       .  S
C2247      F2251   1.385       .  S
C2247      F2252   1.381       .  S
C2247      F2253   1.384       .  S
C2250      F2254   1.383       .  S
C2250      F2255   1.382       .  S
C2250      F2256   1.385       .  S
C2257      C2258   1.393       .  A
C2257      C2262   1.404   1_655  A
C2257      H2264   1.083       .  S
C2258      C2259   1.413       .  A
C2259      C2260   1.401   1_655  A
C2259      C2266   1.517       .  S
C2260      C2261   1.404       .  A
C2260      H2265   1.083       .  S
C2261      C2262   1.430       .  A
C2262      C2263   1.520       .  S
C2263      F2267   1.385   1_455  S
C2263      F2268   1.383       .  S
C2263      F2269   1.383       .  S
C2266      F2270   1.382       .  S
C2266      F2271   1.382       .  S
C2266      F2272   1.385   1_655  S
C2273      C2274   1.405       .  A
C2273      C2278   1.405   1_655  A
C2273      H2280   1.084       .  S
C2274      C2275   1.410       .  A
C2275      C2276   1.400   1_655  A
C2275      C2282   1.520       .  S
C2276      C2277   1.404       .  A
C2276      H2281   1.083       .  S
C2277      C2278   1.412       .  A
C2278      C2279   1.518       .  S
C2279      F2283   1.385       .  S
C2279      F2284   1.381       .  S
C2279      F2285   1.383       .  S
C2282      F2286   1.381       .  S
C2282      F2287   1.384       .  S
C2282      F2288   1.384       .  S
C2289      C2290   1.395       .  A
C2289      C2294   1.407       .  A
C2289      H2296   1.084       .  S
C2290      C2291   1.412       .  A
C2291      C2292   1.410       .  A
C2291      C2298   1.517       .  S
C2292      C2293   1.410       .  A
C2292      H2297   1.083       .  S
C2293      C2294   1.427       .  A
C2294      C2295   1.518       .  S
C2295      F2299   1.385       .  S
C2295      F2300   1.383       .  S
C2295      F2301   1.381       .  S
C2298      F2302   1.383       .  S
C2298      F2303   1.383       .  S
C2298      F2304   1.385       .  S
C2305      C2306   1.406       .  A
C2305      C2310   1.407       .  A
C2305      H2312   1.083       .  S
C2306      C2307   1.417       .  A
C2307      C2308   1.409       .  A
C2307      C2314   1.520       .  S
C2308      C2309   1.409       .  A
C2308      H2313   1.083       .  S
C2309      C2310   1.418       .  A
C2310      C2311   1.518       .  S
C2311      F2315   1.385       .  S
C2311      F2316   1.383       .  S
C2311      F2317   1.380       .  S
C2314      F2318   1.382       .  S
C2314      F2319   1.384       .  S
C2314      F2320   1.384       .  S
C2321      C2322   1.407       .  A
C2321      C2326   1.408       .  A
C2321      H2328   1.083       .  S
C2322      C2323   1.417       .  A
C2323      C2324   1.410       .  A
C2323      C2330   1.518       .  S
C2324      C2325   1.409       .  A
C2324      H2329   1.083       .  S
C2325      C2326   1.418       .  A
C2326      C2327   1.519       .  S
C2327      F2331   1.385       .  S
C2327      F2332   1.382       .  S
C2327      F2333   1.384       .  S
C2330      F2334   1.384       .  S
C2330      F2335   1.381       .  S
C2330      F2336   1.385       .  S
C2337      C2338   1.400       .  A
C2337      C2342   1.404   1_655  A
C2337      H2344   1.083       .  S
C2338      C2339   1.426   1_565  A
C2339      C2340   1.408   1_655  A
C2339      C2346   1.520       .  S
C2340      C2341   1.398   1_545  A
C2340      H2345   1.084       .  S
C2341      C2342   1.418       .  A
C2342      C2343   1.517       .  S
C2343      F2347   1.385   1_455  S
C2343      F2348   1.381       .  S
C2343      F2349   1.381       .  S
C2346      F2350   1.382       .  S
C2346      F2351   1.383       .  S
C2346      F2352   1.385   1_655  S
C2353      C2354   1.403       .  A
C2353      C2358   1.411       .  A
C2353      H2360   1.083       .  S
C2354      C2355   1.419   1_565  A
C2355      C2356   1.407   1_545  A
C2355      C2362   1.519       .  S
C2356      C2357   1.402       .  A
C2356      H2361   1.083   1_565  S
C2357      C2358   1.421       .  A
C2358      C2359   1.519       .  S
C2359      F2363   1.385       .  S
C2359      F2364   1.383       .  S
C2359      F2365   1.382       .  S
C2362      F2366   1.383       .  S
C2362      F2367   1.381       .  S
C2362      F2368   1.384       .  S
C2369      C2370   1.404       .  A
C2369      C2374   1.409       .  A
C2369      H2376   1.083       .  S
C2370      C2371   1.423       .  A
C2371      C2372   1.403       .  A
C2371      C2378   1.516       .  S
C2372      C2373   1.395       .  A
C2372      H2377   1.084       .  S
C2373      C2374   1.417       .  A
C2374      C2375   1.517       .  S
C2375      F2379   1.384       .  S
C2375      F2380   1.383       .  S
C2375      F2381   1.381       .  S
C2378      F2382   1.382       .  S
C2378      F2383   1.379       .  S
C2378      F2384   1.385       .  S
C2385      C2386   1.407       .  A
C2385      C2390   1.405       .  A
C2385      H2392   1.083       .  S
C2386      C2387   1.418       .  A
C2387      C2388   1.406       .  A
C2387      C2394   1.520       .  S
C2388      C2389   1.406       .  A
C2388      H2393   1.083       .  S
C2389      C2390   1.416       .  A
C2390      C2391   1.519       .  S
C2391      F2395   1.385       .  S
C2391      F2396   1.384       .  S
C2391      F2397   1.380       .  S
C2394      F2398   1.382       .  S
C2394      F2399   1.384       .  S
C2394      F2400   1.385       .  S
C2401      C2402   1.414       .  A
C2401      C2406   1.409       .  A
C2401      H2408   1.081       .  S
C2402      C2403   1.420       .  A
C2403      C2404   1.409       .  A
C2403      C2410   1.523       .  S
C2404      C2405   1.415       .  A
C2404      H2409   1.081       .  S
C2405      C2406   1.421       .  A
C2406      C2407   1.522       .  S
C2407      F2411   1.385       .  S
C2407      F2412   1.383       .  S
C2407      F2413   1.384       .  S
C2410      F2414   1.382       .  S
C2410      F2415   1.384       .  S
C2410      F2416   1.384       .  S
C2417      C2418   1.403       .  A
C2417      C2422   1.410       .  A
C2417      H2424   1.083       .  S
C2418      C2419   1.423       .  A
C2419      C2420   1.408       .  A
C2419      C2426   1.516       .  S
C2420      C2421   1.398       .  A
C2420      H2425   1.083       .  S
C2421      C2422   1.418       .  A
C2422      C2423   1.517       .  S
C2423      F2427   1.384       .  S
C2423      F2428   1.383       .  S
C2423      F2429   1.381       .  S
C2426      F2430   1.382       .  S
C2426      F2431   1.380   1_545  S
C2426      F2432   1.385   1_545  S
C2433      C2434   1.398       .  A
C2433      C2438   1.402       .  A
C2433      H2440   1.084       .  S
C2434      C2435   1.419       .  A
C2435      C2436   1.403       .  A
C2435      C2442   1.518       .  S
C2436      C2437   1.399       .  A
C2436      H2441   1.083       .  S
C2437      C2438   1.418       .  A
C2438      C2439   1.515       .  S
C2439      F2443   1.384       .  S
C2439      F2444   1.381       .  S
C2439      F2445   1.381       .  S
C2442      F2446   1.383       .  S
C2442      F2447   1.380       .  S
C2442      F2448   1.385       .  S
C2449      C2450   1.410       .  A
C2449      C2454   1.408       .  A
C2449      H2456   1.082       .  S
C2450      C2451   1.433       .  A
C2451      C2452   1.408       .  A
C2451      C2458   1.522       .  S
C2452      C2453   1.396       .  A
C2452      H2457   1.083       .  S
C2453      C2454   1.412       .  A
C2454      C2455   1.518       .  S
C2455      F2459   1.384       .  S
C2455      F2460   1.382       .  S
C2455      F2461   1.384       .  S
C2458      F2462   1.383       .  S
C2458      F2463   1.383       .  S
C2458      F2464   1.385       .  S
C2465      C2466   1.409       .  A
C2465      C2470   1.409       .  A
C2465      H2472   1.083       .  S
C2466      C2467   1.418       .  A
C2467      C2468   1.408       .  A
C2467      C2474   1.519       .  S
C2468      C2469   1.407       .  A
C2468      H2473   1.083       .  S
C2469      C2470   1.416       .  A
C2470      C2471   1.519       .  S
C2471      F2475   1.385       .  S
C2471      F2476   1.384       .  S
C2471      F2477   1.381       .  S
C2474      F2478   1.382       .  S
C2474      F2479   1.383       .  S
C2474      F2480   1.385       .  S
C2481      C2482   1.409       .  A
C2481      C2486   1.410       .  A
C2481      H2488   1.083       .  S
C2482      C2483   1.417       .  A
C2483      C2484   1.408       .  A
C2483      C2490   1.518       .  S
C2484      C2485   1.406       .  A
C2484      H2489   1.083       .  S
C2485      C2486   1.416       .  A
C2486      C2487   1.520       .  S
C2487      F2491   1.384       .  S
C2487      F2492   1.383       .  S
C2487      F2493   1.384       .  S
C2490      F2494   1.383   1_545  S
C2490      F2495   1.381   1_545  S
C2490      F2496   1.385       .  S
C2497      C2498   1.408       .  A
C2497      C2502   1.405       .  A
C2497      H2504   1.084       .  S
C2498      C2499   1.417       .  A
C2499      C2500   1.406       .  A
C2499      C2506   1.514       .  S
C2500      C2501   1.401       .  A
C2500      H2505   1.082       .  S
C2501      C2502   1.408       .  A
C2502      C2503   1.516       .  S
C2503      F2507   1.384       .  S
C2503      F2508   1.384       .  S
C2503      F2509   1.383       .  S
C2506      F2510   1.382       .  S
C2506      F2511   1.378       .  S
C2506      F2512   1.385       .  S
C2513      C2514   1.407       .  A
C2513      C2518   1.416       .  A
C2513      H2520   1.083       .  S
C2514      C2515   1.420       .  A
C2515      C2516   1.407       .  A
C2515      C2522   1.521       .  S
C2516      C2517   1.409       .  A
C2516      H2521   1.083       .  S
C2517      C2518   1.423       .  A
C2518      C2519   1.514       .  S
C2519      F2523   1.385       .  S
C2519      F2524   1.381       .  S
C2519      F2525   1.384       .  S
C2522      F2526   1.382       .  S
C2522      F2527   1.384       .  S
C2522      F2528   1.384       .  S
C2529      C2530   1.405       .  A
C2529      C2534   1.409       .  A
C2529      H2536   1.083       .  S
C2530      C2531   1.426       .  A
C2531      C2532   1.409       .  A
C2531      C2538   1.516       .  S
C2532      C2533   1.396       .  A
C2532      H2537   1.083       .  S
C2533      C2534   1.415       .  A
C2534      C2535   1.517       .  S
C2535      F2539   1.384       .  S
C2535      F2540   1.383       .  S
C2535      F2541   1.382       .  S
C2538      F2542   1.382       .  S
C2538      F2543   1.381       .  S
C2538      F2544   1.385       .  S
C2545      C2546   1.407       .  A
C2545      C2550   1.409       .  A
C2545      H2552   1.083       .  S
C2546      C2547   1.415       .  A
C2547      C2548   1.410       .  A
C2547      C2554   1.518       .  S
C2548      C2549   1.406       .  A
C2548      H2553   1.083       .  S
C2549      C2550   1.414       .  A
C2550      C2551   1.519       .  S
C2551      F2555   1.384       .  S
C2551      F2556   1.382       .  S
C2551      F2557   1.384       .  S
C2554      F2558   1.381       .  S
C2554      F2559   1.383       .  S
C2554      F2560   1.384       .  S
C2561      C2562   1.408       .  A
C2561      C2566   1.411       .  A
C2561      H2568   1.083       .  S
C2562      C2563   1.416       .  A
C2563      C2564   1.410       .  A
C2563      C2570   1.519       .  S
C2564      C2565   1.409       .  A
C2564      H2569   1.083       .  S
C2565      C2566   1.420       .  A
C2566      C2567   1.519       .  S
C2567      F2571   1.385       .  S
C2567      F2572   1.383       .  S
C2567      F2573   1.381       .  S
C2570      F2574   1.382       .  S
C2570      F2575   1.384       .  S
C2570      F2576   1.384       .  S
C2577      C2578   1.407       .  A
C2577      C2582   1.409       .  A
C2577      H2584   1.083       .  S
C2578      C2579   1.416       .  A
C2579      C2580   1.407       .  A
C2579      C2586   1.519       .  S
C2580      C2581   1.403   1_545  A
C2580      H2585   1.083   1_545  S
C2581      C2582   1.415   1_565  A
C2582      C2583   1.519   1_545  S
C2583      F2587   1.385   1_565  S
C2583      F2588   1.383       .  S
C2583      F2589   1.383       .  S
C2586      F2590   1.382       .  S
C2586      F2591   1.384       .  S
C2586      F2592   1.385       .  S
C2593      C2594   1.402       .  A
C2593      C2598   1.408       .  A
C2593      H2600   1.084       .  S
C2594      C2595   1.419       .  A
C2595      C2596   1.404       .  A
C2595      C2602   1.517       .  S
C2596      C2597   1.399       .  A
C2596      H2601   1.083       .  S
C2597      C2598   1.419       .  A
C2598      C2599   1.518       .  S
C2599      F2603   1.385       .  S
C2599      F2604   1.383       .  S
C2599      F2605   1.381       .  S
C2602      F2606   1.382       .  S
C2602      F2607   1.380       .  S
C2602      F2608   1.385       .  S
C2609      C2610   1.407       .  A
C2609      C2614   1.405       .  A
C2609      H2616   1.084       .  S
C2610      C2611   1.415       .  A
C2611      C2612   1.406       .  A
C2611      C2618   1.519       .  S
C2612      C2613   1.405       .  A
C2612      H2617   1.084       .  S
C2613      C2614   1.412       .  A
C2614      C2615   1.519       .  S
C2615      F2619   1.384       .  S
C2615      F2620   1.381       .  S
C2615      F2621   1.384       .  S
C2618      F2622   1.381       .  S
C2618      F2623   1.383       .  S
C2618      F2624   1.385       .  S
C2625      C2626   1.399       .  A
C2625      C2630   1.404       .  A
C2625      H2632   1.084       .  S
C2626      C2627   1.419       .  A
C2627      C2628   1.403       .  A
C2627      C2634   1.517       .  S
C2628      C2629   1.398       .  A
C2628      H2633   1.084       .  S
C2629      C2630   1.418       .  A
C2630      C2631   1.517       .  S
C2631      F2635   1.384       .  S
C2631      F2636   1.383       .  S
C2631      F2637   1.380       .  S
C2634      F2638   1.382       .  S
C2634      F2639   1.380       .  S
C2634      F2640   1.385       .  S
C2641      C2642   1.397       .  A
C2641      C2646   1.404       .  A
C2641      H2648   1.084       .  S
C2642      C2643   1.417       .  A
C2643      C2644   1.406       .  A
C2643      C2650   1.519       .  S
C2644      C2645   1.402       .  A
C2644      H2649   1.084       .  S
C2645      C2646   1.420       .  A
C2646      C2647   1.516       .  S
C2647      F2651   1.385       .  S
C2647      F2652   1.380       .  S
C2647      F2653   1.383       .  S
C2650      F2654   1.380       .  S
C2650      F2655   1.383       .  S
C2650      F2656   1.385       .  S
C2657      C2658   1.407       .  A
C2657      C2662   1.409       .  A
C2657      H2664   1.083       .  S
C2658      C2659   1.424       .  A
C2659      C2660   1.408       .  A
C2659      C2666   1.519       .  S
C2660      C2661   1.404       .  A
C2660      H2665   1.083       .  S
C2661      C2662   1.420       .  A
C2662      C2663   1.515       .  S
C2663      F2667   1.385       .  S
C2663      F2668   1.379       .  S
C2663      F2669   1.383       .  S
C2666      F2670   1.382       .  S
C2666      F2671   1.383       .  S
C2666      F2672   1.385       .  S
C2673      C2674   1.409       .  A
C2673      C2678   1.408       .  A
C2673      H2680   1.083       .  S
C2674      C2675   1.416       .  A
C2675      C2676   1.406       .  A
C2675      C2682   1.518       .  S
C2676      C2677   1.407       .  A
C2676      H2681   1.083       .  S
C2677      C2678   1.416       .  A
C2678      C2679   1.520       .  S
C2679      F2683   1.384       .  S
C2679      F2684   1.384       .  S
C2679      F2685   1.382       .  S
C2682      F2686   1.382       .  S
C2682      F2687   1.383       .  S
C2682      F2688   1.384       .  S
C2689      C2690   1.408       .  A
C2689      C2694   1.411       .  A
C2689      H2696   1.083       .  S
C2690      C2691   1.417       .  A
C2691      C2692   1.407       .  A
C2691      C2698   1.518       .  S
C2692      C2693   1.405       .  A
C2692      H2697   1.083       .  S
C2693      C2694   1.418       .  A
C2694      C2695   1.520       .  S
C2695      F2699   1.385       .  S
C2695      F2700   1.384       .  S
C2695      F2701   1.381       .  S
C2698      F2702   1.382       .  S
C2698      F2703   1.384       .  S
C2698      F2704   1.384       .  S
C2705      C2706   1.408       .  A
C2705      C2710   1.407       .  A
C2705      H2712   1.083       .  S
C2706      C2707   1.416       .  A
C2707      C2708   1.406       .  A
C2707      C2714   1.515       .  S
C2708      C2709   1.401       .  A
C2708      H2713   1.083       .  S
C2709      C2710   1.412       .  A
C2710      C2711   1.518       .  S
C2711      F2715   1.385       .  S
C2711      F2716   1.383       .  S
C2711      F2717   1.381       .  S
C2714      F2718   1.381       .  S
C2714      F2719   1.380       .  S
C2714      F2720   1.385   1_545  S
C2721      C2722   1.407       .  A
C2721      C2726   1.407       .  A
C2721      H2728   1.084       .  S
C2722      C2723   1.412       .  A
C2723      C2724   1.404       .  A
C2723      C2730   1.519       .  S
C2724      C2725   1.405       .  A
C2724      H2729   1.083       .  S
C2725      C2726   1.414       .  A
C2726      C2727   1.519       .  S
C2727      F2731   1.385       .  S
C2727      F2732   1.381       .  S
C2727      F2733   1.384       .  S
C2730      F2734   1.382       .  S
C2730      F2735   1.383       .  S
C2730      F2736   1.385       .  S
C2737      C2738   1.410       .  A
C2737      C2742   1.405       .  A
C2737      H2744   1.082       .  S
C2738      C2739   1.427       .  A
C2739      C2740   1.414       .  A
C2739      C2746   1.515       .  S
C2740      C2741   1.403       .  A
C2740      H2745   1.083       .  S
C2741      C2742   1.421       .  A
C2742      C2743   1.523       .  S
C2743      F2747   1.385       .  S
C2743      F2748   1.381       .  S
C2743      F2749   1.384       .  S
C2746      F2750   1.382       .  S
C2746      F2751   1.384       .  S
C2746      F2752   1.384       .  S
C2753      C2754   1.405       .  A
C2753      C2758   1.412       .  A
C2753      H2760   1.083       .  S
C2754      C2755   1.421       .  A
C2755      C2756   1.407       .  A
C2755      C2762   1.519       .  S
C2756      C2757   1.405       .  A
C2756      H2761   1.084       .  S
C2757      C2758   1.424       .  A
C2758      C2759   1.518       .  S
C2759      F2763   1.385       .  S
C2759      F2764   1.383       .  S
C2759      F2765   1.380       .  S
C2762      F2766   1.382       .  S
C2762      F2767   1.384       .  S
C2762      F2768   1.385       .  S
C2769      C2770   1.402       .  A
C2769      C2774   1.407       .  A
C2769      H2776   1.083       .  S
C2770      C2771   1.418       .  A
C2771      C2772   1.410       .  A
C2771      C2778   1.520       .  S
C2772      C2773   1.407       .  A
C2772      H2777   1.083       .  S
C2773      C2774   1.418       .  A
C2774      C2775   1.517       .  S
C2775      F2779   1.384       .  S
C2775      F2780   1.379       .  S
C2775      F2781   1.383       .  S
C2778      F2782   1.383       .  S
C2778      F2783   1.382       .  S
C2778      F2784   1.385       .  S
C2785      C2786   1.404       .  A
C2785      C2790   1.405       .  A
C2785      H2792   1.084       .  S
C2786      C2787   1.416       .  A
C2787      C2788   1.409       .  A
C2787      C2794   1.520       .  S
C2788      C2789   1.406       .  A
C2788      H2793   1.083       .  S
C2789      C2790   1.416       .  A
C2790      C2791   1.519       .  S
C2791      F2795   1.381       .  S
C2791      F2796   1.384       .  S
C2791      F2797   1.385       .  S
C2794      F2798   1.383       .  S
C2794      F2799   1.383       .  S
C2794      F2800   1.385       .  S
C2801      C2802   1.409       .  A
C2801      C2806   1.410       .  A
C2801      H2808   1.083       .  S
C2802      C2803   1.417       .  A
C2803      C2804   1.412       .  A
C2803      C2810   1.519       .  S
C2804      C2805   1.411       .  A
C2804      H2809   1.083       .  S
C2805      C2806   1.420       .  A
C2806      C2807   1.521       .  S
C2807      F2811   1.385       .  S
C2807      F2812   1.383       .  S
C2807      F2813   1.382       .  S
C2810      F2814   1.382       .  S
C2810      F2815   1.384       .  S
C2810      F2816   1.385       .  S
C2817      C2818   1.406       .  A
C2817      C2822   1.409   1_556  A
C2817      H2824   1.083       .  S
C2818      C2819   1.423       .  A
C2819      C2820   1.410   1_556  A
C2819      C2826   1.516       .  S
C2820      C2821   1.404       .  A
C2820      H2825   1.083       .  S
C2821      C2822   1.421       .  A
C2822      C2823   1.519       .  S
C2823      F2827   1.385       .  S
C2823      F2828   1.384       .  S
C2823      F2829   1.382       .  S
C2826      F2830   1.379       .  S
C2826      F2831   1.383       .  S
C2826      F2832   1.384       .  S
C2833      C2834   1.404       .  A
C2833      C2838   1.408       .  A
C2833      H2840   1.083       .  S
C2834      C2835   1.429       .  A
C2835      C2836   1.406       .  A
C2835      C2842   1.518       .  S
C2836      C2837   1.394       .  A
C2836      H2841   1.084       .  S
C2837      C2838   1.416       .  A
C2838      C2839   1.517       .  S
C2839      F2843   1.385       .  S
C2839      F2844   1.381       .  S
C2839      F2845   1.383       .  S
C2842      F2846   1.381       .  S
C2842      F2847   1.382       .  S
C2842      F2848   1.386       .  S
C2849      C2850   1.405       .  A
C2849      C2854   1.414   1_556  A
C2849      H2856   1.083       .  S
C2850      C2851   1.420       .  A
C2851      C2852   1.409   1_556  A
C2851      C2858   1.518       .  S
C2852      C2853   1.405       .  A
C2852      H2857   1.083       .  S
C2853      C2854   1.424       .  A
C2854      C2855   1.517       .  S
C2855      F2859   1.385       .  S
C2855      F2860   1.383       .  S
C2855      F2861   1.380       .  S
C2858      F2862   1.382       .  S
C2858      F2863   1.384       .  S
C2858      F2864   1.384       .  S
C2865      C2866   1.406       .  A
C2865      C2870   1.409       .  A
C2865      H2872   1.084       .  S
C2866      C2867   1.414       .  A
C2867      C2868   1.409       .  A
C2867      C2874   1.520       .  S
C2868      C2869   1.410       .  A
C2868      H2873   1.083       .  S
C2869      C2870   1.418       .  A
C2870      C2871   1.517       .  S
C2871      F2875   1.385       .  S
C2871      F2876   1.383       .  S
C2871      F2877   1.380       .  S
C2874      F2878   1.383       .  S
C2874      F2879   1.384       .  S
C2874      F2880   1.384       .  S
C2881      C2882   1.406       .  A
C2881      C2886   1.409       .  A
C2881      H2888   1.083       .  S
C2882      C2883   1.419       .  A
C2883      C2884   1.410       .  A
C2883      C2890   1.518       .  S
C2884      C2885   1.404       .  A
C2884      H2889   1.083       .  S
C2885      C2886   1.415       .  A
C2886      C2887   1.518       .  S
C2887      F2891   1.385       .  S
C2887      F2892   1.384       .  S
C2887      F2893   1.382       .  S
C2890      F2894   1.381       .  S
C2890      F2895   1.383       .  S
C2890      F2896   1.385       .  S
C2897      C2898   1.415       .  A
C2897      C2902   1.409       .  A
C2897      H2904   1.082       .  S
C2898      C2899   1.424       .  A
C2899      C2900   1.410       .  A
C2899      C2906   1.515       .  S
C2900      C2901   1.405       .  A
C2900      H2905   1.082       .  S
C2901      C2902   1.416       .  A
C2902      C2903   1.521       .  S
C2903      F2907   1.385       .  S
C2903      F2908   1.384       .  S
C2903      F2909   1.382       .  S
C2906      F2910   1.383       .  S
C2906      F2911   1.382   1_565  S
C2906      F2912   1.384       .  S
C2913      C2914   1.405       .  A
C2913      C2918   1.408   1_556  A
C2913      H2920   1.084       .  S
C2914      C2915   1.418       .  A
C2915      C2916   1.408   1_556  A
C2915      C2922   1.519       .  S
C2916      C2917   1.405       .  A
C2916      H2921   1.083       .  S
C2917      C2918   1.418       .  A
C2918      C2919   1.518       .  S
C2919      F2923   1.385       .  S
C2919      F2924   1.383       .  S
C2919      F2925   1.383       .  S
C2922      F2926   1.380       .  S
C2922      F2927   1.383       .  S
C2922      F2928   1.385       .  S
C2929      C2930   1.402   1_545  A
C2929      C2934   1.404   1_655  A
C2929      H2936   1.083       .  S
C2930      C2931   1.421       .  A
C2931      C2932   1.405   1_655  A
C2931      C2938   1.518       .  S
C2932      C2933   1.399       .  A
C2932      H2937   1.084       .  S
C2933      C2934   1.414   1_565  A
C2934      C2935   1.517       .  S
C2935      F2939   1.384   1_455  S
C2935      F2940   1.384       .  S
C2935      F2941   1.382       .  S
C2938      F2942   1.383       .  S
C2938      F2943   1.381       .  S
C2938      F2944   1.385   1_655  S
C2945      C2946   1.407       .  A
C2945      C2950   1.414   1_556  A
C2945      H2952   1.083       .  S
C2946      C2947   1.419       .  A
C2947      C2948   1.408   1_556  A
C2947      C2954   1.518       .  S
C2948      C2949   1.402       .  A
C2948      H2953   1.083       .  S
C2949      C2950   1.416       .  A
C2950      C2951   1.517       .  S
C2951      F2955   1.384       .  S
C2951      F2956   1.384       .  S
C2951      F2957   1.382       .  S
C2954      F2958   1.383       .  S
C2954      F2959   1.385   1_556  S
C2954      F2960   1.381       .  S
C2961      C2962   1.407       .  A
C2961      C2966   1.408       .  A
C2961      H2968   1.083       .  S
C2962      C2963   1.418       .  A
C2963      C2964   1.407       .  A
C2963      C2970   1.519       .  S
C2964      C2965   1.405       .  A
C2964      H2969   1.083       .  S
C2965      C2966   1.415       .  A
C2966      C2967   1.519       .  S
C2967      F2971   1.384       .  S
C2967      F2972   1.382       .  S
C2967      F2973   1.384       .  S
C2970      F2974   1.385       .  S
C2970      F2975   1.383       .  S
C2970      F2976   1.381       .  S
C2977      C2978   1.406       .  A
C2977      C2982   1.410       .  A
C2977      H2984   1.083       .  S
C2978      C2979   1.416       .  A
C2979      C2980   1.411       .  A
C2979      C2986   1.520       .  S
C2980      C2981   1.408       .  A
C2980      H2985   1.083       .  S
C2981      C2982   1.418       .  A
C2982      C2983   1.520       .  S
C2983      F2987   1.385       .  S
C2983      F2988   1.383       .  S
C2983      F2989   1.382       .  S
C2986      F2990   1.382       .  S
C2986      F2991   1.384       .  S
C2986      F2992   1.384       .  S
C2993      C2994   1.402       .  A
C2993      C2998   1.405   1_655  A
C2993      H3000   1.084       .  S
C2994      C2995   1.414       .  A
C2995      C2996   1.405   1_655  A
C2995      C3002   1.518       .  S
C2996      C2997   1.403       .  A
C2996      H3001   1.084       .  S
C2997      C2998   1.416       .  A
C2998      C2999   1.519       .  S
C2999      F3003   1.385       .  S
C2999      F3004   1.384       .  S
C2999      F3005   1.381       .  S
C3002      F3006   1.383       .  S
C3002      F3007   1.382       .  S
C3002      F3008   1.385       .  S
C3009      C3010   1.408       .  A
C3009      C3014   1.411       .  A
C3009      H3016   1.084       .  S
C3010      C3011   1.425       .  A
C3011      C3012   1.412       .  A
C3011      C3018   1.514       .  S
C3012      C3013   1.402       .  A
C3012      H3017   1.083       .  S
C3013      C3014   1.421       .  A
C3014      C3015   1.518       .  S
C3015      F3019   1.385       .  S
C3015      F3020   1.382       .  S
C3015      F3021   1.384       .  S
C3018      F3022   1.383       .  S
C3018      F3023   1.380       .  S
C3018      F3024   1.385       .  S
C3025      C3026   1.401       .  A
C3025      C3030   1.406   1_655  A
C3025      H3032   1.083       .  S
C3026      C3027   1.415       .  A
C3027      C3028   1.405   1_655  A
C3027      C3034   1.519       .  S
C3028      C3029   1.403       .  A
C3028      H3033   1.083       .  S
C3029      C3030   1.418       .  A
C3030      C3031   1.519       .  S
C3031      F3035   1.384   1_455  S
C3031      F3036   1.384       .  S
C3031      F3037   1.381       .  S
C3034      F3038   1.384       .  S
C3034      F3039   1.381       .  S
C3034      F3040   1.385   1_655  S
C3041      C3042   1.399       .  A
C3041      C3046   1.410       .  A
C3041      H3048   1.083       .  S
C3042      C3043   1.416       .  A
C3043      C3044   1.411       .  A
C3043      C3050   1.521       .  S
C3044      C3045   1.417       .  A
C3044      H3049   1.082       .  S
C3045      C3046   1.429       .  A
C3046      C3047   1.514       .  S
C3047      F3051   1.385       .  S
C3047      F3052   1.382       .  S
C3047      F3053   1.381       .  S
C3050      F3054   1.383       .  S
C3050      F3055   1.381       .  S
C3050      F3056   1.385       .  S
C3057      C3058   1.406       .  A
C3057      C3062   1.407       .  A
C3057      H3064   1.084       .  S
C3058      C3059   1.421       .  A
C3059      C3060   1.407       .  A
C3059      C3066   1.517       .  S
C3060      C3061   1.402       .  A
C3060      H3065   1.083       .  S
C3061      C3062   1.418       .  A
C3062      C3063   1.519       .  S
C3063      F3067   1.385       .  S
C3063      F3068   1.382       .  S
C3063      F3069   1.384       .  S
C3066      F3070   1.381       .  S
C3066      F3071   1.380       .  S
C3066      F3072   1.385       .  S
C3073      C3074   1.408       .  A
C3073      C3078   1.409       .  A
C3073      H3080   1.083       .  S
C3074      C3075   1.417       .  A
C3075      C3076   1.408       .  A
C3075      C3082   1.519       .  S
C3076      C3077   1.406       .  A
C3076      H3081   1.083       .  S
C3077      C3078   1.416       .  A
C3078      C3079   1.520       .  S
C3079      F3083   1.384       .  S
C3079      F3084   1.382       .  S
C3079      F3085   1.384       .  S
C3082      F3086   1.384       .  S
C3082      F3087   1.382       .  S
C3082      F3088   1.385       .  S
C3089      C3090   1.410       .  A
C3089      C3094   1.407       .  A
C3089      H3096   1.083       .  S
C3090      C3091   1.418       .  A
C3091      C3092   1.410       .  A
C3091      C3098   1.519       .  S
C3092      C3093   1.410       .  A
C3092      H3097   1.083       .  S
C3093      C3094   1.418       .  A
C3094      C3095   1.521       .  S
C3095      F3099   1.385       .  S
C3095      F3100   1.381       .  S
C3095      F3101   1.383       .  S
C3098      F3102   1.383       .  S
C3098      F3103   1.382       .  S
C3098      F3104   1.385       .  S
C3105      C3106   1.401       .  A
C3105      C3110   1.400   1_655  A
C3105      H3112   1.084       .  S
C3106      C3107   1.415   1_565  A
C3107      C3108   1.402   1_655  A
C3107      C3114   1.517       .  S
C3108      C3109   1.401   1_545  A
C3108      H3113   1.084       .  S
C3109      C3110   1.415       .  A
C3110      C3111   1.519       .  S
C3111      F3115   1.384   1_455  S
C3111      F3116   1.383       .  S
C3111      F3117   1.381       .  S
C3114      F3118   1.383       .  S
C3114      F3119   1.381       .  S
C3114      F3120   1.385   1_655  S
C3121      C3122   1.409       .  A
C3121      C3126   1.406       .  A
C3121      H3128   1.082       .  S
C3122      C3123   1.424       .  A
C3123      C3124   1.410       .  A
C3123      C3130   1.513       .  S
C3124      C3125   1.404       .  A
C3124      H3129   1.082       .  S
C3125      C3126   1.421       .  A
C3126      C3127   1.521       .  S
C3127      F3131   1.385       .  S
C3127      F3132   1.383   1_565  S
C3127      F3133   1.383       .  S
C3130      F3134   1.384   1_565  S
C3130      F3135   1.379       .  S
C3130      F3136   1.385       .  S
C3137      C3138   1.408       .  A
C3137      C3142   1.408       .  A
C3137      H3144   1.083       .  S
C3138      C3139   1.419       .  A
C3139      C3140   1.402       .  A
C3139      C3146   1.518       .  S
C3140      C3141   1.401       .  A
C3140      H3145   1.083       .  S
C3141      C3142   1.415       .  A
C3142      C3143   1.518       .  S
C3143      F3147   1.384       .  S
C3143      F3148   1.384       .  S
C3143      F3149   1.382       .  S
C3146      F3150   1.378       .  S
C3146      F3151   1.384       .  S
C3146      F3152   1.385       .  S
C3153      C3154   1.402       .  A
C3153      C3158   1.407       .  A
C3153      H3160   1.083       .  S
C3154      C3155   1.429       .  A
C3155      C3156   1.405       .  A
C3155      C3162   1.520       .  S
C3156      C3157   1.394       .  A
C3156      H3161   1.084       .  S
C3157      C3158   1.417       .  A
C3158      C3159   1.517       .  S
C3159      F3163   1.385       .  S
C3159      F3164   1.381       .  S
C3159      F3165   1.383       .  S
C3162      F3166   1.381       .  S
C3162      F3167   1.383       .  S
C3162      F3168   1.385       .  S
C3169      C3170   1.405       .  A
C3169      C3174   1.410       .  A
C3169      H3176   1.083       .  S
C3170      C3171   1.421       .  A
C3171      C3172   1.407       .  A
C3171      C3178   1.520       .  S
C3172      C3173   1.402       .  A
C3172      H3177   1.083       .  S
C3173      C3174   1.416       .  A
C3174      C3175   1.517       .  S
C3175      F3179   1.385       .  S
C3175      F3180   1.384       .  S
C3175      F3181   1.381       .  S
C3178      F3182   1.380       .  S
C3178      F3183   1.383       .  S
C3178      F3184   1.385       .  S
C3185      C3186   1.405       .  A
C3185      C3190   1.411       .  A
C3185      H3192   1.083       .  S
C3186      C3187   1.416       .  A
C3187      C3188   1.410       .  A
C3187      C3194   1.519       .  S
C3188      C3189   1.405       .  A
C3188      H3193   1.083       .  S
C3189      C3190   1.417       .  A
C3190      C3191   1.518       .  S
C3191      F3195   1.384       .  S
C3191      F3196   1.384       .  S
C3191      F3197   1.383       .  S
C3194      F3198   1.382       .  S
C3194      F3199   1.384       .  S
C3194      F3200   1.384       .  S
C3201      C3202   1.407   1_545  A
C3201      C3206   1.410       .  A
C3201      H3208   1.083   1_545  S
C3202      C3203   1.419   1_565  A
C3203      C3204   1.409       .  A
C3203      C3210   1.519   1_545  S
C3204      C3205   1.403       .  A
C3204      H3209   1.083       .  S
C3205      C3206   1.415       .  A
C3206      C3207   1.520       .  S
C3207      F3211   1.384       .  S
C3207      F3212   1.384       .  S
C3207      F3213   1.382       .  S
C3210      F3214   1.382       .  S
C3210      F3215   1.383       .  S
C3210      F3216   1.385   1_565  S
C3217      C3218   1.392       .  A
C3217      C3222   1.403       .  A
C3217      H3224   1.084       .  S
C3218      C3219   1.418       .  A
C3219      C3220   1.406       .  A
C3219      C3226   1.519       .  S
C3220      C3221   1.402       .  A
C3220      H3225   1.083       .  S
C3221      C3222   1.429       .  A
C3222      C3223   1.520       .  S
C3223      F3227   1.385       .  S
C3223      F3228   1.382       .  S
C3223      F3229   1.382       .  S
C3226      F3230   1.382       .  S
C3226      F3231   1.382       .  S
C3226      F3232   1.385       .  S
C3233      C3234   1.409       .  A
C3233      C3238   1.408   1_556  A
C3233      H3240   1.083       .  S
C3234      C3235   1.423       .  A
C3235      C3236   1.410   1_556  A
C3235      C3242   1.515       .  S
C3236      C3237   1.404       .  A
C3236      H3241   1.082       .  S
C3237      C3238   1.420       .  A
C3238      C3239   1.519       .  S
C3239      F3243   1.385       .  S
C3239      F3244   1.384       .  S
C3239      F3245   1.383       .  S
C3242      F3246   1.380       .  S
C3242      F3247   1.383       .  S
C3242      F3248   1.384       .  S
C3249      C3250   1.409       .  A
C3249      C3254   1.407       .  A
C3249      H3256   1.084       .  S
C3250      C3251   1.408       .  A
C3251      C3252   1.404       .  A
C3251      C3258   1.517       .  S
C3252      C3253   1.409       .  A
C3252      H3257   1.084       .  S
C3253      C3254   1.409       .  A
C3254      C3255   1.517       .  S
C3255      F3259   1.384       .  S
C3255      F3260   1.380       .  S
C3255      F3261   1.384       .  S
C3258      F3262   1.381       .  S
C3258      F3263   1.384       .  S
C3258      F3264   1.384       .  S
C3265      C3266   1.400       .  A
C3265      C3270   1.410       .  A
C3265      H3272   1.083       .  S
C3266      C3267   1.408       .  A
C3267      C3268   1.406       .  A
C3267      C3274   1.520       .  S
C3268      C3269   1.419       .  A
C3268      H3273   1.081       .  S
C3269      C3270   1.427       .  A
C3270      C3271   1.514       .  S
C3271      F3275   1.385       .  S
C3271      F3276   1.381       .  S
C3271      F3277   1.380       .  S
C3274      F3278   1.383       .  S
C3274      F3279   1.382       .  S
C3274      F3280   1.384       .  S
C3281      C3282   1.401       .  A
C3281      C3286   1.409   1_556  A
C3281      H3288   1.083       .  S
C3282      C3283   1.417       .  A
C3283      C3284   1.410   1_556  A
C3283      C3290   1.517       .  S
C3284      C3285   1.407       .  A
C3284      H3289   1.083       .  S
C3285      C3286   1.425       .  A
C3286      C3287   1.517       .  S
C3287      F3291   1.385       .  S
C3287      F3292   1.382       .  S
C3287      F3293   1.379       .  S
C3290      F3294   1.382       .  S
C3290      F3295   1.384       .  S
C3290      F3296   1.385       .  S
C3297      C3298   1.407       .  A
C3297      C3302   1.406       .  A
C3297      H3304   1.083       .  S
C3298      C3299   1.418       .  A
C3299      C3300   1.409       .  A
C3299      C3306   1.519       .  S
C3300      C3301   1.407       .  A
C3300      H3305   1.083       .  S
C3301      C3302   1.415       .  A
C3302      C3303   1.521       .  S
C3303      F3307   1.384       .  S
C3303      F3308   1.382       .  S
C3303      F3309   1.384       .  S
C3306      F3310   1.383       .  S
C3306      F3311   1.381       .  S
C3306      F3312   1.385       .  S
C3313      C3314   1.407       .  A
C3313      C3318   1.409       .  A
C3313      H3320   1.083       .  S
C3314      C3315   1.417       .  A
C3315      C3316   1.413       .  A
C3315      C3322   1.518       .  S
C3316      C3317   1.410       .  A
C3316      H3321   1.083       .  S
C3317      C3318   1.418       .  A
C3318      C3319   1.520       .  S
C3319      F3323   1.385       .  S
C3319      F3324   1.382       .  S
C3319      F3325   1.383       .  S
C3322      F3326   1.384       .  S
C3322      F3327   1.382       .  S
C3322      F3328   1.384       .  S
C3329      C3330   1.405       .  A
C3329      C3334   1.409       .  A
C3329      H3336   1.084       .  S
C3330      C3331   1.406       .  A
C3331      C3332   1.405       .  A
C3331      C3338   1.515       .  S
C3332      C3333   1.412       .  A
C3332      H3337   1.083       .  S
C3333      C3334   1.416       .  A
C3334      C3335   1.515       .  S
C3335      F3339   1.385       .  S
C3335      F3340   1.380       .  S
C3335      F3341   1.383       .  S
C3338      F3342   1.383   1_545  S
C3338      F3343   1.383       .  S
C3338      F3344   1.385   1_545  S
C3345      C3346   1.408       .  A
C3345      C3350   1.414       .  A
C3345      H3352   1.082       .  S
C3346      C3347   1.427       .  A
C3347      C3348   1.408       .  A
C3347      C3354   1.523       .  S
C3348      C3349   1.406       .  A
C3348      H3353   1.083       .  S
C3349      C3350   1.422       .  A
C3350      C3351   1.514       .  S
C3351      F3355   1.385       .  S
C3351      F3356   1.383       .  S
C3351      F3357   1.379       .  S
C3354      F3358   1.383       .  S
C3354      F3359   1.382       .  S
C3354      F3360   1.385       .  S
C3361      C3362   1.408       .  A
C3361      C3366   1.414       .  A
C3361      H3368   1.083       .  S
C3362      C3363   1.419       .  A
C3363      C3364   1.411       .  A
C3363      C3370   1.519       .  S
C3364      C3365   1.405       .  A
C3364      H3369   1.083       .  S
C3365      C3366   1.419       .  A
C3366      C3367   1.519       .  S
C3367      F3371   1.385       .  S
C3367      F3372   1.383       .  S
C3367      F3373   1.381       .  S
C3370      F3374   1.380       .  S
C3370      F3375   1.383       .  S
C3370      F3376   1.385       .  S
C3377      C3378   1.409       .  A
C3377      C3382   1.404       .  A
C3377      H3384   1.083       .  S
C3378      C3379   1.427       .  A
C3379      C3380   1.415       .  A
C3379      C3386   1.517       .  S
C3380      C3381   1.405       .  A
C3380      H3385   1.083       .  S
C3381      C3382   1.418       .  A
C3382      C3383   1.520       .  S
C3383      F3387   1.385       .  S
C3383      F3388   1.384       .  S
C3383      F3389   1.383       .  S
C3386      F3390   1.383       .  S
C3386      F3391   1.381       .  S
C3386      F3392   1.385       .  S
C3393      C3394   1.402       .  A
C3393      C3398   1.407       .  A
C3393      H3400   1.083       .  S
C3394      C3395   1.419       .  A
C3395      C3396   1.406       .  A
C3395      C3402   1.518       .  S
C3396      C3397   1.401       .  A
C3396      H3401   1.083       .  S
C3397      C3398   1.419       .  A
C3398      C3399   1.518       .  S
C3399      F3403   1.385       .  S
C3399      F3404   1.383       .  S
C3399      F3405   1.380       .  S
C3402      F3406   1.383       .  S
C3402      F3407   1.381       .  S
C3402      F3408   1.385       .  S
C3409      C3410   1.405       .  A
C3409      C3414   1.409       .  A
C3409      H3416   1.083       .  S
C3410      C3411   1.420       .  A
C3411      C3412   1.411       .  A
C3411      C3418   1.519       .  S
C3412      C3413   1.408       .  A
C3412      H3417   1.083       .  S
C3413      C3414   1.421       .  A
C3414      C3415   1.516       .  S
C3415      F3419   1.384       .  S
C3415      F3420   1.383       .  S
C3415      F3421   1.380       .  S
C3418      F3422   1.382       .  S
C3418      F3423   1.384       .  S
C3418      F3424   1.385       .  S
C3425      C3426   1.405       .  A
C3425      C3430   1.407       .  A
C3425      H3432   1.083       .  S
C3426      C3427   1.417       .  A
C3427      C3428   1.409       .  A
C3427      C3434   1.520       .  S
C3428      C3429   1.407       .  A
C3428      H3433   1.083       .  S
C3429      C3430   1.418       .  A
C3430      C3431   1.518       .  S
C3431      F3435   1.385       .  S
C3431      F3436   1.383       .  S
C3431      F3437   1.381       .  S
C3434      F3438   1.383       .  S
C3434      F3439   1.383       .  S
C3434      F3440   1.385       .  S
C3441      C3442   1.407       .  A
C3441      C3446   1.409       .  A
C3441      H3448   1.083       .  S
C3442      C3443   1.416       .  A
C3443      C3444   1.410       .  A
C3443      C3450   1.520       .  S
C3444      C3445   1.410       .  A
C3444      H3449   1.083       .  S
C3445      C3446   1.417       .  A
C3446      C3447   1.518       .  S
C3447      F3451   1.385       .  S
C3447      F3452   1.384       .  S
C3447      F3453   1.381       .  S
C3450      F3454   1.383       .  S
C3450      F3455   1.384       .  S
C3450      F3456   1.384       .  S
C3457      C3458   1.390       .  A
C3457      C3462   1.400       .  A
C3457      H3464   1.084       .  S
C3458      C3459   1.413       .  A
C3459      C3460   1.404       .  A
C3459      C3466   1.518       .  S
C3460      C3461   1.404       .  A
C3460      H3465   1.083       .  S
C3461      C3462   1.430       .  A
C3462      C3463   1.520       .  S
C3463      F3467   1.385   1_545  S
C3463      F3468   1.382       .  S
C3463      F3469   1.382       .  S
C3466      F3470   1.382       .  S
C3466      F3471   1.384       .  S
C3466      F3472   1.384       .  S
C3473      C3474   1.398       .  A
C3473      C3478   1.406       .  A
C3473      H3480   1.084       .  S
C3474      C3475   1.414       .  A
C3475      C3476   1.405       .  A
C3475      C3482   1.518       .  S
C3476      C3477   1.405       .  A
C3476      H3481   1.083       .  S
C3477      C3478   1.422       .  A
C3478      C3479   1.516       .  S
C3479      F3483   1.385       .  S
C3479      F3484   1.383       .  S
C3479      F3485   1.380       .  S
C3482      F3486   1.384       .  S
C3482      F3487   1.381       .  S
C3482      F3488   1.384       .  S
C3489      C3490   1.404       .  A
C3489      C3494   1.411   1_556  A
C3489      H3496   1.083       .  S
C3490      C3491   1.418       .  A
C3491      C3492   1.405   1_556  A
C3491      C3498   1.519       .  S
C3492      C3493   1.403       .  A
C3492      H3497   1.083       .  S
C3493      C3494   1.417       .  A
C3494      C3495   1.515       .  S
C3495      F3499   1.385       .  S
C3495      F3500   1.382       .  S
C3495      F3501   1.381       .  S
C3498      F3502   1.380       .  S
C3498      F3503   1.383       .  S
C3498      F3504   1.384       .  S
C3505      C3506   1.409       .  A
C3505      C3510   1.403       .  A
C3505      H3512   1.083       .  S
C3506      C3507   1.414       .  A
C3507      C3508   1.408       .  A
C3507      C3514   1.516       .  S
C3508      C3509   1.406       .  A
C3508      H3513   1.084       .  S
C3509      C3510   1.405       .  A
C3510      C3511   1.514       .  S
C3511      F3515   1.384       .  S
C3511      F3516   1.382       .  S
C3511      F3517   1.383       .  S
C3514      F3518   1.381       .  S
C3514      F3519   1.383       .  S
C3514      F3520   1.385       .  S
C3521      C3522   1.404       .  A
C3521      C3526   1.406       .  A
C3521      H3528   1.084       .  S
C3522      C3523   1.416       .  A
C3523      C3524   1.406       .  A
C3523      C3530   1.518       .  S
C3524      C3525   1.403       .  A
C3524      H3529   1.084       .  S
C3525      C3526   1.417       .  A
C3526      C3527   1.521       .  S
C3527      F3531   1.385       .  S
C3527      F3532   1.383       .  S
C3527      F3533   1.381       .  S
C3530      F3534   1.383       .  S
C3530      F3535   1.382       .  S
C3530      F3536   1.385       .  S
C3537      C3538   1.404       .  A
C3537      C3542   1.411       .  A
C3537      H3544   1.082       .  S
C3538      C3539   1.421       .  A
C3539      C3540   1.408       .  A
C3539      C3546   1.522       .  S
C3540      C3541   1.410       .  A
C3540      H3545   1.082       .  S
C3541      C3542   1.425       .  A
C3542      C3543   1.516       .  S
C3543      F3547   1.385       .  S
C3543      F3548   1.383       .  S
C3543      F3549   1.381       .  S
C3546      F3550   1.384       .  S
C3546      F3551   1.382       .  S
C3546      F3552   1.385       .  S
C3553      C3554   1.406       .  A
C3553      C3558   1.406   1_556  A
C3553      H3560   1.084       .  S
C3554      C3555   1.419       .  A
C3555      C3556   1.407   1_556  A
C3555      C3562   1.519       .  S
C3556      C3557   1.404       .  A
C3556      H3561   1.083       .  S
C3557      C3558   1.414       .  A
C3558      C3559   1.517       .  S
C3559      F3563   1.384       .  S
C3559      F3564   1.384       .  S
C3559      F3565   1.382       .  S
C3562      F3566   1.381       .  S
C3562      F3567   1.382       .  S
C3562      F3568   1.386       .  S
C3569      C3570   1.402       .  A
C3569      C3574   1.405       .  A
C3569      H3576   1.083       .  S
C3570      C3571   1.423       .  A
C3571      C3572   1.407       .  A
C3571      C3578   1.519       .  S
C3572      C3573   1.401       .  A
C3572      H3577   1.083       .  S
C3573      C3574   1.419       .  A
C3574      C3575   1.518       .  S
C3575      F3579   1.384       .  S
C3575      F3580   1.382       .  S
C3575      F3581   1.383       .  S
C3578      F3582   1.385       .  S
C3578      F3583   1.383       .  S
C3578      F3584   1.381       .  S
C3585      C3586   1.402       .  A
C3585      C3590   1.407       .  A
C3585      H3592   1.083       .  S
C3586      C3587   1.425       .  A
C3587      C3588   1.407       .  A
C3587      C3594   1.519       .  S
C3588      C3589   1.403       .  A
C3588      H3593   1.083       .  S
C3589      C3590   1.425       .  A
C3590      C3591   1.519       .  S
C3591      F3595   1.385       .  S
C3591      F3596   1.384   1_545  S
C3591      F3597   1.381   1_545  S
C3594      F3598   1.383       .  S
C3594      F3599   1.383       .  S
C3594      F3600   1.385       .  S
C3601      C3602   1.409       .  A
C3601      C3606   1.404       .  A
C3601      H3608   1.084       .  S
C3602      C3603   1.409       .  A
C3603      C3604   1.405       .  A
C3603      C3610   1.517       .  S
C3604      C3605   1.408       .  A
C3604      H3609   1.084       .  S
C3605      C3606   1.407       .  A
C3606      C3607   1.516       .  S
C3607      F3611   1.384       .  S
C3607      F3612   1.382       .  S
C3607      F3613   1.384       .  S
C3610      F3614   1.381       .  S
C3610      F3615   1.384       .  S
C3610      F3616   1.384       .  S
C3617      C3618   1.409       .  A
C3617      C3622   1.406       .  A
C3617      H3624   1.083       .  S
C3618      C3619   1.426       .  A
C3619      C3620   1.405       .  A
C3619      C3626   1.521       .  S
C3620      C3621   1.396       .  A
C3620      H3625   1.084       .  S
C3621      C3622   1.411       .  A
C3622      C3623   1.517       .  S
C3623      F3627   1.382       .  S
C3623      F3628   1.385       .  S
C3623      F3629   1.383       .  S
C3626      F3630   1.383       .  S
C3626      F3631   1.383       .  S
C3626      F3632   1.385       .  S
C3633      C3634   1.408       .  A
C3633      C3638   1.411       .  A
C3633      H3640   1.083       .  S
C3634      C3635   1.414       .  A
C3635      C3636   1.410       .  A
C3635      C3642   1.518       .  S
C3636      C3637   1.407       .  A
C3636      H3641   1.083       .  S
C3637      C3638   1.414       .  A
C3638      C3639   1.519       .  S
C3639      F3643   1.384       .  S
C3639      F3644   1.382       .  S
C3639      F3645   1.384       .  S
C3642      F3646   1.382       .  S
C3642      F3647   1.384       .  S
C3642      F3648   1.384       .  S
