geometry optimzed in LAMMPS
_audit_creation_date              2020-12-01 
_audit_creation_method            'lammps2cif' 
_symmetry_space_group_name_H-M    'P1' 
_symmetry_Int_Tables_number       1 
_symmetry_cell_setting            triclinic 
loop_ 
_symmetry_equiv_pos_as_xyz 
  x,y,z 
_cell_length_a                    46.27643357 
_cell_length_b                    54.574790476166605 
_cell_length_c                    32.37695134108573 
_cell_angle_alpha                 89.99074824127864 
_cell_angle_beta                  89.98687551801122 
_cell_angle_gamma                 89.97925800784758 
loop_ 
_atom_site_label 
_atom_site_type_symbol 
_atom_site_fract_x 
_atom_site_fract_y 
_atom_site_fract_z 
_atom_site_charge 
Zn1        Zn  0.33224342  0.52338258  0.53851522     1.49700
Zn2        Zn  0.38353840  0.48528901  0.55985897     1.49400
Zn3        Zn  0.35385755  0.51612013  0.63010544     1.49100
Zn4        Zn  0.31728791  0.47381923  0.58441728     1.49500
O5          O  0.34679165  0.49941835  0.57814054    -1.81100
O6          O  0.35610127  0.52193418  0.48763822    -0.71700
O7          O  0.41719373  0.49497344  0.59770088    -0.71600
O8          O  0.34902684  0.55240528  0.62443355    -0.71100
O9          O  0.39051795  0.49419190  0.49967717    -0.71800
O10         O  0.33209738  0.55791936  0.56084182    -0.71400
O11         O  0.39388475  0.51032952  0.65198277    -0.71900
O12         O  0.29737880  0.47816769  0.63981863    -0.71300
O13         O  0.38130179  0.44842103  0.56340037    -0.72100
O14         O  0.32472980  0.50599111  0.67171822    -0.71500
O15         O  0.33597916  0.43998849  0.58193146    -0.71900
O16         O  0.28617618  0.47662222  0.53960077    -0.71800
O17         O  0.29266744  0.51479225  0.51734493    -0.71600
C18         C  0.37723323  0.50891953  0.47569081     0.80200
C19         C  0.41701716  0.50311723  0.63465570     0.80600
C20         C  0.33976624  0.56624533  0.59584023     0.79600
C21         C  0.30318073  0.49162828  0.67089481     0.80000
C22         C  0.36158352  0.43317590  0.57288152     0.81100
C23         C  0.27854643  0.49482526  0.51740217     0.80200
Zn24       Zn  0.38125633  0.76367086  0.69286398     1.49700
Zn25       Zn  0.31539556  0.77622241  0.66980842     1.49400
Zn26       Zn  0.35140686  0.73590077  0.61933556     1.49100
Zn27       Zn  0.32970488  0.72495325  0.70965900     1.49500
O28         O  0.34460413  0.75036292  0.67311537    -1.81100
O29         O  0.37921704  0.80068828  0.69301773    -0.71700
O30         O  0.29386675  0.77300072  0.61572597    -0.71600
O31         O  0.39105400  0.74315632  0.59743397    -0.71100
O32         O  0.33429482  0.80978977  0.67341400    -0.71800
O33         O  0.41463073  0.75529830  0.65377181    -0.71400
O34         O  0.32116583  0.74681385  0.57998010    -0.71900
O35         O  0.32915120  0.69148974  0.68306062    -0.71300
O36         O  0.28558455  0.77269793  0.71570335    -0.72100
O37         O  0.34766810  0.69938139  0.62109708    -0.71500
O38         O  0.29046177  0.73339213  0.73262748    -0.71900
O39         O  0.35410692  0.72358332  0.75998938    -0.71800
O40         O  0.38844932  0.75186054  0.75159713    -0.71600
C41         C  0.35977986  0.81624520  0.68366760     0.80200
C42         C  0.29915787  0.76055452  0.58332783     0.80600
C43         C  0.41430096  0.74911578  0.61575788     0.79600
C44         C  0.33779707  0.68448558  0.64769080     0.80000
C45         C  0.27738678  0.75381278  0.73566830     0.81100
C46         C  0.37541148  0.73584208  0.77343391     0.80200
Zn47       Zn  0.43578945  0.52024919  0.20864092     1.49700
Zn48       Zn  0.45103581  0.46942729  0.16720063     1.49400
Zn49       Zn  0.38472143  0.48133222  0.18925454     1.49100
Zn50       Zn  0.41518132  0.51047658  0.11747920     1.49500
O51         O  0.42154587  0.49516506  0.17077656    -1.81100
O52         O  0.47558539  0.51240871  0.23041088    -0.71700
O53         O  0.43257147  0.43556914  0.17138530    -0.71600
O54         O  0.37733352  0.49167665  0.24872638    -0.71100
O55         O  0.48118466  0.47329003  0.21272646    -0.71800
O56         O  0.41187956  0.51948398  0.25952230    -0.71400
O57         O  0.38708171  0.44432162  0.18856199    -0.71900
O58         O  0.37566705  0.50344168  0.09469133    -0.71300
O59         O  0.47235702  0.47285848  0.11281135    -0.72100
O60         O  0.35152901  0.49022392  0.14988726    -0.71500
O61         O  0.44582786  0.50009755  0.07810738    -0.71900
O62         O  0.41852044  0.54705808  0.12084068    -0.71800
O63         O  0.43494463  0.55445088  0.18412691    -0.71600
C64         C  0.48917152  0.49219299  0.23283404     0.80200
C65         C  0.40695619  0.42889279  0.18061653     0.80600
C66         C  0.39063155  0.50678900  0.27200452     0.79600
C67         C  0.35223374  0.49709204  0.11218323     0.80000
C68         C  0.46750207  0.48592150  0.08093756     0.81100
C69         C  0.42707056  0.56181440  0.14856668     0.80200
Zn70       Zn  0.45706573  0.72805186  0.08527651     1.49700
Zn71       Zn  0.42779104  0.76854898  0.03121789     1.49400
Zn72       Zn  0.38971504  0.72339538  0.06597275     1.49100
Zn73       Zn  0.41133687  0.76563284  0.12602876     1.49500
O74         O  0.42129038  0.74639305  0.07737579    -1.81100
O75         O  0.48638103  0.73435053  0.03984248    -0.71700
O76         O  0.40630133  0.75588286  0.98271872    -0.71600
O77         O  0.40189562  0.68905397  0.08170673    -0.71100
O78         O  0.46917989  0.76836637  0.01107980    -0.71800
O79         O  0.44941036  0.69188354  0.09105963    -0.71400
O80         O  0.38103898  0.72349060  0.00432884    -0.71900
O81         O  0.37321717  0.75470618  0.15006374    -0.71300
O82         O  0.41485138  0.80309592  0.04392641    -0.72100
O83         O  0.35422234  0.73055358  0.10171730    -0.71500
O84         O  0.40600816  0.80141232  0.11147239    -0.71900
O85         O  0.44222558  0.76197778  0.16942614    -0.71800
O86         O  0.47466363  0.73765865  0.13904725    -0.71600
C87         C  0.48870342  0.75206936  0.01446427     0.80200
C88         C  0.38993840  0.73769214  0.97573662     0.80600
C89         C  0.42618295  0.67945981  0.09051090     0.79600
C90         C  0.35238292  0.74199312  0.13600283     0.80000
C91         C  0.40721545  0.81322322  0.07761427     0.81100
C92         C  0.46605730  0.75032291  0.16957581     0.80200
Zn93       Zn  0.13247482  0.51343685  0.31234205     1.49700
Zn94       Zn  0.10189858  0.48384799  0.38313973     1.49400
Zn95       Zn  0.06624365  0.52577350  0.33559652     1.49100
Zn96       Zn  0.08068075  0.47557566  0.29183023     1.49500
O97         O  0.09545071  0.49989817  0.33055360    -1.81100
O98         O  0.16572680  0.50355724  0.35113435    -0.71700
O99         O  0.07171617  0.49379402  0.42328361    -0.71600
O100        O  0.08540187  0.55940580  0.33334953    -0.71100
O101        O  0.14144819  0.49015981  0.40604895    -0.71800
O102        O  0.13067975  0.55041134  0.31524000    -0.71400
O103        O  0.04508938  0.52157875  0.39003783    -0.71900
O104        O  0.04095646  0.48406535  0.27092134    -0.71300
O105        O  0.09797363  0.44749926  0.37835219    -0.72100
O106        O  0.03581289  0.52298852  0.29002931    -0.71500
O107        O  0.08092192  0.44115696  0.31506831    -0.71900
O108        O  0.10434567  0.47669219  0.24071576    -0.71800
O109        O  0.13940147  0.50393342  0.25218883    -0.71600
C110        C  0.16495959  0.49636424  0.38867540     0.80200
C111        C  0.05010761  0.50806475  0.42132592     0.80600
C112        C  0.11113831  0.56590999  0.32442423     0.79600
C113        C  0.02754445  0.50437955  0.26934847     0.80000
C114        C  0.08888066  0.43326231  0.35024466     0.81100
C115        C  0.12575422  0.48927463  0.22846673     0.80200
Zn116      Zn  0.06731469  0.22284518  0.41693176     1.49700
Zn117      Zn  0.10368956  0.26478539  0.37096115     1.49400
Zn118      Zn  0.08107811  0.27286075  0.46195129     1.49100
Zn119      Zn  0.13313953  0.23498029  0.44254179     1.49500
O120        O  0.09642570  0.24865842  0.42332495    -1.81100
O121        O  0.04668203  0.22747499  0.36214612    -0.71700
O122        O  0.09963518  0.30110789  0.37588325    -0.71600
O123        O  0.04159414  0.26360245  0.48325632    -0.71100
O124        O  0.07403887  0.25509242  0.32978133    -0.71800
O125        O  0.03667729  0.22500249  0.46228462    -0.71400
O126        O  0.08055237  0.30717392  0.43810630    -0.71900
O127        O  0.13967747  0.24490840  0.50255418    -0.71300
O128        O  0.14350588  0.25824848  0.34904769    -0.72100
O129        O  0.10484693  0.27249903  0.51317824    -0.71500
O130        O  0.16688067  0.24433326  0.40437927    -0.71900
O131        O  0.13117325  0.19799552  0.43996087    -0.71800
O132        O  0.08648244  0.18925196  0.41884962    -0.71600
C133        C  0.05225030  0.24100491  0.33106354     0.80200
C134        C  0.08938938  0.31519114  0.40341896     0.80600
C135        C  0.02836129  0.24318399  0.48398742     0.79600
C136        C  0.12614944  0.25990459  0.52583402     0.80000
C137        C  0.16667823  0.25159457  0.36687851     0.81100
C138        C  0.11188804  0.18261748  0.42927902     0.80200
Zn139      Zn  0.13348269  0.51085700  0.94046361     1.49700
Zn140      Zn  0.20019238  0.52166527  0.91835066     1.49400
Zn141      Zn  0.18371481  0.47148876  0.96120905     1.49100
Zn142      Zn  0.16339509  0.48092149  0.86956089     1.49500
O143        O  0.17012239  0.49643495  0.92255445    -1.81100
O144        O  0.13640618  0.54774047  0.93770545    -0.71700
O145        O  0.23042143  0.51766252  0.96394266    -0.71600
O146        O  0.15986709  0.47318056  0.01228547    -0.71100
O147        O  0.18221292  0.55578904  0.92126075    -0.71800
O148        O  0.12627022  0.50171475  0.00056317    -0.71400
O149        O  0.22366970  0.47886239  0.98276613    -0.71900
O150        O  0.16687373  0.44448091  0.87342418    -0.71300
O151        O  0.22119405  0.51760621  0.86376550    -0.72100
O152        O  0.18258261  0.43718176  0.93714712    -0.71500
O153        O  0.19362326  0.49094756  0.82954010    -0.71900
O154        O  0.12391904  0.48790507  0.84681330    -0.71800
O155        O  0.09995756  0.50181661  0.90163851    -0.71600
C156        C  0.15655157  0.56283713  0.92944672     0.80200
C157        C  0.23787242  0.49878014  0.98458354     0.80600
C158        C  0.13916901  0.48665717  0.02442957     0.79600
C159        C  0.17513172  0.42978902  0.90141674     0.80000
C160        C  0.21565184  0.50471094  0.83193247     0.81100
C161        C  0.10057192  0.49463626  0.86409504     0.80200
Zn162      Zn  0.17879558  0.22320858  0.78551751     1.49700
Zn163      Zn  0.13998260  0.26817337  0.81917859     1.49400
Zn164      Zn  0.16207853  0.22657355  0.88058491     1.49100
Zn165      Zn  0.20740418  0.26426156  0.83922336     1.49500
O166        O  0.17188275  0.24554523  0.83139665    -1.81100
O167        O  0.15742570  0.23548980  0.73636810    -0.71700
O168        O  0.10468442  0.26149697  0.85563676    -0.71600
O169        O  0.15684426  0.19056460  0.86646962    -0.71100
O170        O  0.13118350  0.26742595  0.75747673    -0.71800
O171        O  0.16575925  0.18872271  0.79890161    -0.71400
O172        O  0.12386563  0.23766141  0.90429520    -0.71900
O173        O  0.22434769  0.25612557  0.89410635    -0.71300
O174        O  0.15183633  0.30272721  0.83358364    -0.72100
O175        O  0.19254784  0.23130780  0.92465989    -0.71500
O176        O  0.19937687  0.30038706  0.84298547    -0.71900
O177        O  0.23722456  0.25759715  0.79467933    -0.71800
O178        O  0.22035817  0.22354142  0.76568933    -0.71600
C179        C  0.14058117  0.25333492  0.72903896     0.80200
C180        C  0.10301471  0.25037712  0.89024646     0.80600
C181        C  0.15799925  0.17867818  0.83263251     0.79600
C182        C  0.21578633  0.24380816  0.92505805     0.80000
C183        C  0.17601147  0.31260226  0.84199863     0.81100
C184        C  0.23977370  0.23991863  0.76928281     0.80200
Zn185      Zn  0.38500252  0.25745178  0.19527712     1.49700
Zn186      Zn  0.31960022  0.27228149  0.17335598     1.49400
Zn187      Zn  0.35356979  0.23115707  0.12169681     1.49100
Zn188      Zn  0.33169099  0.22038624  0.21201208     1.49500
O189        O  0.34764131  0.24548913  0.17575389    -1.81100
O190        O  0.38502556  0.29458257  0.19469577    -0.71700
O191        O  0.29754654  0.26994483  0.11947619    -0.71600
O192        O  0.39345140  0.23738039  0.09955954    -0.71100
O193        O  0.34021068  0.30519047  0.17681462    -0.71800
O194        O  0.41791491  0.24753098  0.15626634    -0.71400
O195        O  0.32342249  0.24311695  0.08290615    -0.71900
O196        O  0.33050102  0.18688851  0.18540274    -0.71300
O197        O  0.28982656  0.26936305  0.21969106    -0.72100
O198        O  0.34854570  0.19471670  0.12312832    -0.71500
O199        O  0.29244301  0.22957999  0.23432190    -0.71900
O200        O  0.35548537  0.21880555  0.26292918    -0.71800
O201        O  0.39113503  0.24590640  0.25445958    -0.71600
C202        C  0.36618191  0.31079617  0.18600138     0.80200
C203        C  0.30200935  0.25748342  0.08682417     0.80600
C204        C  0.41710405  0.24197312  0.11797393     0.79600
C205        C  0.33861115  0.17987460  0.14977037     0.80000
C206        C  0.28049964  0.25042808  0.23853803     0.81100
C207        C  0.37711451  0.23059642  0.27652063     0.80200
Zn208      Zn  0.35533692  0.97723607  0.12619295     1.49700
Zn209      Zn  0.34159428  0.97432643  0.03024916     1.49400
Zn210      Zn  0.30936686  0.01371486  0.08296710     1.49100
Zn211      Zn  0.37675720  0.02001807  0.06776497     1.49500
O212        O  0.34586203  0.99623085  0.07714786    -1.81100
O213        O  0.36176752  0.94155642  0.11153331    -0.71700
O214        O  0.30046145  0.97262007  0.00901704    -0.71600
O215        O  0.29126338  0.00442297  0.13647664    -0.71100
O216        O  0.35644168  0.94035003  0.04313902    -0.71800
O217        O  0.32361315  0.98081090  0.16861872    -0.71400
O218        O  0.28115155  0.00608233  0.03686635    -0.71900
O219        O  0.36330813  0.05363412  0.08440493    -0.71300
O220        O  0.36260448  0.98880813  0.98252205    -0.72100
O221        O  0.31547580  0.05011944  0.08786728    -0.71500
O222        O  0.38569295  0.02172251  0.00664823    -0.71900
O223        O  0.41209850  0.01315273  0.10351231    -0.71800
O224        O  0.39299889  0.98869877  0.15135408    -0.71600
C225        C  0.36276328  0.93009284  0.07729548     0.80200
C226        C  0.28007740  0.98820126  0.01167052     0.80600
C227        C  0.29962115  0.99224662  0.16769485     0.79600
C228        C  0.33841343  0.06284282  0.09022821     0.80000
C229        C  0.37769323  0.00796674  0.97700101     0.81100
C230        C  0.41377576  0.00168067  0.13775408     0.80200
Zn231      Zn  0.38937256  0.22550308  0.56946316     1.49700
Zn232      Zn  0.45672119  0.23123658  0.58575288     1.49400
Zn233      Zn  0.42560840  0.27075081  0.53156195     1.49100
Zn234      Zn  0.41131637  0.26878504  0.62732379     1.49500
O235        O  0.42057941  0.24913640  0.57883245    -1.81100
O236        O  0.40226661  0.19164938  0.58663680    -0.71700
O237        O  0.48476894  0.23719739  0.53875692    -0.71600
O238        O  0.40374585  0.25682659  0.48426836    -0.71100
O239        O  0.44991138  0.19507694  0.59330291    -0.71800
O240        O  0.37998079  0.22418598  0.50815803    -0.71400
O241        O  0.46669038  0.27081471  0.50970268    -0.71900
O242        O  0.40464116  0.30438866  0.61165359    -0.71300
O243        O  0.47527749  0.24145212  0.63847174    -0.72100
O244        O  0.41181396  0.30526366  0.54362192    -0.71500
O245        O  0.44320333  0.26572237  0.66975114    -0.71900
O246        O  0.37398669  0.25723893  0.65321761    -0.71800
O247        O  0.35444019  0.23261555  0.60596559    -0.71600
C248        C  0.42687276  0.18244357  0.59467840     0.80200
C249        C  0.48637023  0.25459776  0.51266326     0.80600
C250        C  0.38806957  0.23803849  0.47861754     0.79600
C251        C  0.40463405  0.31573399  0.57725622     0.80000
C252        C  0.46711166  0.25414259  0.66920793     0.81100
C253        C  0.35316158  0.24409842  0.64024142     0.80200
Zn254      Zn  0.42551527  0.97834769  0.72399915     1.49700
Zn255      Zn  0.41064544  0.97994546  0.62863544     1.49400
Zn256      Zn  0.38949451  0.02372179  0.68595353     1.49100
Zn257      Zn  0.45693085  0.01737400  0.66919215     1.49500
O258        O  0.42051667  0.99984134  0.67662181    -1.81100
O259        O  0.41097306  0.94402311  0.71285861    -0.71700
O260        O  0.37331876  0.99156103  0.60278870    -0.71600
O261        O  0.37974567  0.02502585  0.74704581    -0.71100
O262        O  0.40354681  0.94452356  0.64491375    -0.71800
O263        O  0.40409083  0.99274643  0.77115137    -0.71400
O264        O  0.35447371  0.01697205  0.64941856    -0.71900
O265        O  0.45053522  0.05376469  0.66269028    -0.71300
O266        O  0.44232663  0.98233084  0.58594327    -0.72100
O267        O  0.40289916  0.05748139  0.66948005    -0.71500
O268        O  0.47459276  0.00704539  0.61577781    -0.71900
O269        O  0.48565192  0.01055803  0.71526826    -0.71800
O270        O  0.46671920  0.97752760  0.74505329    -0.71600
C271        C  0.40349367  0.93341598  0.67951687     0.80200
C272        C  0.35276759  0.00507651  0.61559441     0.80600
C273        C  0.38807656  0.01134759  0.77665190     0.79600
C274        C  0.42759394  0.06658266  0.66171940     0.80000
C275        C  0.46619269  0.99394810  0.58565114     0.81100
C276        C  0.48699496  0.99312467  0.74136046     0.80200
Zn277      Zn  0.60437428  0.01936974  0.37674754     1.49700
Zn278      Zn  0.56018984  0.98054949  0.33532859     1.49400
Zn279      Zn  0.58996606  0.02073326  0.28101499     1.49100
Zn280      Zn  0.62788707  0.97662317  0.31925650     1.49500
O281        O  0.59572482  0.99937478  0.32841181    -1.81100
O282        O  0.57254597  0.01573263  0.41905415    -0.71700
O283        O  0.53133755  0.98654087  0.28917248    -0.71600
O284        O  0.60328363  0.05545257  0.29262669    -0.71100
O285        O  0.54173248  0.98997644  0.38861752    -0.71800
O286        O  0.61006932  0.05506383  0.36074619    -0.71400
O287        O  0.54862752  0.02044934  0.26013244    -0.71900
O288        O  0.63747299  0.97535213  0.25804213    -0.71300
O289        O  0.56831990  0.94445044  0.34171852    -0.72100
O290        O  0.61181484  0.00679945  0.23358965    -0.71500
O291        O  0.61617328  0.94250549  0.33614485    -0.71900
O292        O  0.66250520  0.98459878  0.35587054    -0.71800
O293        O  0.64202367  0.00875811  0.40299169    -0.71600
C294        C  0.54929361  0.00324459  0.41897142     0.80200
C295        C  0.52912052  0.00412054  0.26349026     0.80600
C296        C  0.61004477  0.06622210  0.32616844     0.79600
C297        C  0.62850029  0.98859386  0.22823797     0.80000
C298        C  0.59188779  0.93251555  0.34337580     0.81100
C299        C  0.66334312  0.99614580  0.39010877     0.80200
Zn300      Zn  0.62871175  0.77231623  0.43483634     1.49700
Zn301      Zn  0.59003957  0.72860074  0.47335211     1.49400
Zn302      Zn  0.56113107  0.76842428  0.41771108     1.49100
Zn303      Zn  0.60534651  0.72924437  0.37804867     1.49500
O304        O  0.59649712  0.74962565  0.42572948    -1.81100
O305        O  0.63800686  0.77368038  0.49610871    -0.71700
O306        O  0.54883176  0.72992847  0.49441435    -0.71600
O307        O  0.56954023  0.80425153  0.40950973    -0.71100
O308        O  0.61216785  0.74229888  0.52042306    -0.71800
O309        O  0.61721836  0.80648734  0.41739339    -0.71400
O310        O  0.53245968  0.76384884  0.46437996    -0.71900
O311        O  0.57368530  0.73216990  0.33562369    -0.71300
O312        O  0.60233018  0.69355861  0.46259721    -0.72100
O313        O  0.54237410  0.75781099  0.36532671    -0.71500
O314        O  0.61041569  0.69381337  0.39479147    -0.71900
O315        O  0.64323860  0.73922405  0.35208804    -0.71800
O316        O  0.66351141  0.76377477  0.39879758    -0.71600
C317        C  0.62891419  0.76043302  0.52582625     0.80200
C318        C  0.52986006  0.74667821  0.49072713     0.80600
C319        C  0.59302793  0.81629892  0.40878841     0.79600
C320        C  0.55010110  0.74418599  0.33550443     0.80000
C321        C  0.60944121  0.68268687  0.42931173     0.81100
C322        C  0.66457091  0.75178020  0.36500120     0.80200
Zn323      Zn  0.70684334  0.97827124  0.91635541     1.49700
Zn324      Zn  0.66109206  0.01626295  0.87673474     1.49400
Zn325      Zn  0.63974753  0.97355651  0.93635838     1.49100
Zn326      Zn  0.67786450  0.01849928  0.97158157     1.49500
O327        O  0.67121334  0.99668899  0.92499083    -1.81100
O328        O  0.72380472  0.98764918  0.86208540    -0.71700
O329        O  0.62267699  0.00556804  0.85344121    -0.71600
O330        O  0.65161839  0.93939334  0.91937013    -0.71100
O331        O  0.69141375  0.01228211  0.83234794    -0.71800
O332        O  0.69917107  0.94212865  0.91053030    -0.71400
O333        O  0.60400607  0.98105689  0.90157900    -0.71900
O334        O  0.65688108  0.00514285  0.02024095    -0.71300
O335        O  0.65611087  0.05208361  0.89192807    -0.72100
O336        O  0.63171153  0.97283171  0.99810898    -0.71500
O337        O  0.66465584  0.05322139  0.95960193    -0.71900
O338        O  0.71948845  0.01820077  0.99102708    -0.71800
O339        O  0.73658611  0.98446727  0.96118191    -0.71600
C340        C  0.71500166  0.00026294  0.83161696     0.80200
C341        C  0.60195274  0.99274210  0.86756438     0.80600
C342        C  0.67588732  0.92979036  0.91055115     0.79600
C343        C  0.64079892  0.98672066  0.02698789     0.80000
C344        C  0.65718020  0.06365081  0.92605883     0.81100
C345        C  0.73904966  0.00197784  0.98692812     0.80200
Zn346      Zn  0.70675662  0.76538065  0.83444671     1.49700
Zn347      Zn  0.66140053  0.72707753  0.87417864     1.49400
Zn348      Zn  0.63947945  0.77060664  0.81720621     1.49100
Zn349      Zn  0.67673993  0.72591868  0.77885018     1.49500
O350        O  0.67093807  0.74718632  0.82641562    -1.81100
O351        O  0.72512057  0.75445484  0.88693220    -0.71700
O352        O  0.62382708  0.73804870  0.89990151    -0.71600
O353        O  0.65176837  0.80447809  0.83484506    -0.71100
O354        O  0.69299296  0.72961277  0.91678133    -0.71800
O355        O  0.69935753  0.80144013  0.84278600    -0.71400
O356        O  0.60436364  0.76294277  0.85297346    -0.71900
O357        O  0.65486768  0.74003716  0.73167974    -0.71300
O358        O  0.65544292  0.69160888  0.85780011    -0.72100
O359        O  0.63050077  0.77227655  0.75599130    -0.71500
O360        O  0.66372791  0.69098412  0.79004744    -0.71900
O361        O  0.71798097  0.72667365  0.75745974    -0.71800
O362        O  0.73522682  0.76022767  0.78766289    -0.71600
C363        C  0.71689743  0.74115263  0.91690237     0.80200
C364        C  0.60293693  0.75110492  0.88688927     0.80600
C365        C  0.67613863  0.81387632  0.84358324     0.79600
C366        C  0.63899208  0.75875273  0.72628073     0.80000
C367        C  0.65630736  0.68031382  0.82341566     0.81100
C368        C  0.73733578  0.74311255  0.76111676     0.80200
Zn369      Zn  0.85608107  0.76339704  0.12521020     1.49700
Zn370      Zn  0.84005683  0.76658934  0.22008265     1.49400
Zn371      Zn  0.81053794  0.72590679  0.16695456     1.49100
Zn372      Zn  0.87798822  0.72124633  0.18548590     1.49500
O373        O  0.84636299  0.74426460  0.17415324    -1.81100
O374        O  0.86226242  0.79920378  0.13957237    -0.71700
O375        O  0.79874095  0.76652694  0.24074625    -0.71600
O376        O  0.79272033  0.73529518  0.11324589    -0.71100
O377        O  0.85324344  0.80102098  0.20705227    -0.71800
O378        O  0.82469085  0.75987732  0.08246217    -0.71400
O379        O  0.78137964  0.73241580  0.21257290    -0.71900
O380        O  0.86565866  0.68682643  0.17056271    -0.71300
O381        O  0.86192804  0.75412809  0.26830567    -0.72100
O382        O  0.81813384  0.68973363  0.16141123    -0.71500
O383        O  0.88746484  0.72183414  0.24690149    -0.71900
O384        O  0.91302361  0.72795113  0.14877195    -0.71800
O385        O  0.89369550  0.75186854  0.10032404    -0.71600
C386        C  0.86118082  0.81104865  0.17342365     0.80200
C387        C  0.77916888  0.75024933  0.23774258     0.80600
C388        C  0.80098743  0.74803968  0.08262303     0.79600
C389        C  0.84133566  0.67726830  0.16191152     0.80000
C390        C  0.87863887  0.73617089  0.27535163     0.81100
C391        C  0.91454179  0.73906833  0.11416471     0.80200
Zn392      Zn  0.81045761  0.51274061  0.08676994     1.49700
Zn393      Zn  0.87778451  0.51809576  0.06963302     1.49400
Zn394      Zn  0.85611783  0.47516168  0.12846811     1.49100
Zn395      Zn  0.84107890  0.47284103  0.03292215     1.49500
O396        O  0.84651112  0.49463099  0.07981644    -1.81100
O397        O  0.81753573  0.54898675  0.09346086    -0.71700
O398        O  0.91294399  0.51123707  0.10571484    -0.71600
O399        O  0.82461948  0.47885179  0.17149309    -0.71100
O400        O  0.86520365  0.55201508  0.08653817    -0.71800
O401        O  0.79250564  0.50310601  0.14022302    -0.71400
O402        O  0.89376731  0.48678188  0.15353129    -0.71900
O403        O  0.85459459  0.43835725  0.04525831    -0.71300
O404        O  0.88683438  0.51907383  0.00826528    -0.72100
O405        O  0.86226159  0.43931562  0.11317458    -0.71500
O406        O  0.86277638  0.48639145  0.98518980    -0.71900
O407        O  0.79989199  0.47267985  0.01160915    -0.71800
O408        O  0.78177191  0.50631857  0.04049091    -0.71600
C409        C  0.84072924  0.56143825  0.09463020     0.80200
C410        C  0.91445905  0.49994732  0.14014549     0.80600
C411        C  0.80084809  0.49065281  0.17114240     0.79600
C412        C  0.86183785  0.42788067  0.07884274     0.80000
C413        C  0.87854069  0.50507255  0.97906677     0.81100
C414        C  0.78007109  0.48875435  0.01470027     0.80200
Zn415      Zn  0.94833426  0.47567566  0.66760278     1.49700
Zn416      Zn  0.88265693  0.48732074  0.69435271     1.49400
Zn417      Zn  0.93445801  0.52561015  0.71269225     1.49100
Zn418      Zn  0.91113173  0.51752972  0.62229886     1.49500
O419        O  0.91902100  0.50130948  0.67441623    -1.81100
O420        O  0.92951552  0.44197824  0.66981920    -0.71700
O421        O  0.87650052  0.49741492  0.75421469    -0.71600
O422        O  0.97370832  0.51630910  0.73445722    -0.71100
O423        O  0.88487218  0.45033280  0.69161035    -0.71800
O424        O  0.97943367  0.47802003  0.71238705    -0.71400
O425        O  0.91053891  0.52585765  0.76353772    -0.71900
O426        O  0.91614023  0.55383086  0.62664354    -0.71300
O427        O  0.84843958  0.49660788  0.65725246    -0.72100
O428        O  0.93572488  0.55969281  0.68855406    -0.71500
O429        O  0.87089409  0.51151899  0.60188792    -0.71900
O430        O  0.93976102  0.50728709  0.58008388    -0.71800
O431        O  0.96811657  0.48028488  0.61223027    -0.71600
C432        C  0.90425085  0.43512757  0.68050975     0.80200
C433        C  0.88966205  0.51299594  0.77676884     0.80600
C434        C  0.98737891  0.49610567  0.73459053     0.79600
C435        C  0.92696849  0.56777393  0.65391124     0.80000
C436        C  0.84805762  0.50445257  0.62011619     0.81100
C437        C  0.96176125  0.49341678  0.58097234     0.80200
Zn438      Zn  0.91572839  0.73634370  0.63177652     1.49700
Zn439      Zn  0.93918582  0.72745870  0.54186789     1.49400
Zn440      Zn  0.88537602  0.76410245  0.55876631     1.49100
Zn441      Zn  0.95062183  0.77848848  0.58400170     1.49500
O442        O  0.92253056  0.75185034  0.57884624    -1.81100
O443        O  0.92007397  0.69998403  0.62802486    -0.71700
O444        O  0.91550187  0.72598461  0.49099185    -0.71600
O445        O  0.85206781  0.75450166  0.59744775    -0.71100
O446        O  0.94053558  0.69357396  0.56684357    -0.71800
O447        O  0.87583900  0.74252616  0.65372345    -0.71400
O448        O  0.87904811  0.75227081  0.49970606    -0.71900
O449        O  0.93014715  0.81145609  0.58062596    -0.71300
O450        O  0.97832680  0.73734000  0.52034242    -0.72100
O451        O  0.88601241  0.80121828  0.55892994    -0.71500
O452        O  0.98124667  0.77655112  0.53863303    -0.71900
O453        O  0.97178636  0.77488571  0.63855771    -0.71800
O454        O  0.94568011  0.74680081  0.67193814    -0.71600
C455        C  0.93104686  0.68576613  0.60127528     0.80200
C456        C  0.89337088  0.73716928  0.47762367     0.80600
C457        C  0.85244638  0.74798917  0.63532668     0.79600
C458        C  0.90465232  0.81725912  0.56925513     0.80000
C459        C  0.99053587  0.75817177  0.51826092     0.81100
C460        C  0.96706472  0.76130593  0.66986290     0.80200
Zn461      Zn  0.66021015  0.51897912  0.37659719     1.49700
Zn462      Zn  0.63813131  0.47535888  0.43339409     1.49400
Zn463      Zn  0.70562695  0.48173392  0.41884940     1.49100
Zn464      Zn  0.67335527  0.52043949  0.47278081     1.49500
O465        O  0.66917868  0.49921165  0.42500765    -1.81100
O466        O  0.62284154  0.50767089  0.35039352    -0.71700
O467        O  0.65153763  0.44192360  0.41548861    -0.71600
O468        O  0.72439778  0.49194872  0.36629038    -0.71100
O469        O  0.60319370  0.48267058  0.39702285    -0.71800
O470        O  0.69232293  0.51593152  0.33438744    -0.71400
O471        O  0.69933152  0.44554227  0.41155266    -0.71900
O472        O  0.71424864  0.52136872  0.49496821    -0.71300
O473        O  0.62883221  0.47291573  0.49458959    -0.72100
O474        O  0.73324419  0.48804806  0.46621597    -0.71500
O475        O  0.65191412  0.50557164  0.51965970    -0.71900
O476        O  0.65895107  0.55469303  0.46117550    -0.71800
O477        O  0.65360953  0.55449079  0.39275388    -0.71600
C478        C  0.60196754  0.49445072  0.36302197     0.80200
C479        C  0.67640018  0.43285195  0.40882352     0.80600
C480        C  0.71631574  0.50447400  0.33531781     0.79600
C481        C  0.73428171  0.50546457  0.49231954     0.80000
C482        C  0.63677130  0.48640467  0.52465128     0.81100
C483        C  0.65266666  0.56546683  0.42746634     0.80200
Zn484      Zn  0.63334566  0.23650162  0.30877172     1.49700
Zn485      Zn  0.66372362  0.26528981  0.38074101     1.49400
Zn486      Zn  0.69887828  0.22317351  0.33311905     1.49100
Zn487      Zn  0.68621332  0.27389031  0.29035415     1.49500
O488        O  0.67035159  0.24948220  0.32802196    -1.81100
O489        O  0.60017404  0.24592189  0.34762209    -0.71700
O490        O  0.69424062  0.25539738  0.42064908    -0.71600
O491        O  0.67892529  0.18987879  0.33147809    -0.71100
O492        O  0.62409947  0.25860629  0.40332408    -0.71800
O493        O  0.63449725  0.19940837  0.31015793    -0.71400
O494        O  0.72053133  0.22750917  0.38705999    -0.71900
O495        O  0.72517431  0.26414267  0.26780674    -0.71300
O496        O  0.66743823  0.30171734  0.37629716    -0.72100
O497        O  0.72887069  0.22509492  0.28688376    -0.71500
O498        O  0.68750020  0.30796298  0.31480324    -0.71900
O499        O  0.66189728  0.27484520  0.24011739    -0.71800
O500        O  0.62641729  0.24770763  0.24956912    -0.71600
C501        C  0.60070873  0.25261698  0.38539079     0.80200
C502        C  0.71586659  0.24113688  0.41831576     0.80600
C503        C  0.65340052  0.18367749  0.32087931     0.79600
C504        C  0.73762094  0.24339515  0.26582226     0.80000
C505        C  0.67814367  0.31588651  0.34924236     0.81100
C506        C  0.64010688  0.26304828  0.22715380     0.80200
Zn507      Zn  0.59335017  0.51768698  0.77887450     1.49700
Zn508      Zn  0.56175102  0.47852082  0.83328528     1.49400
Zn509      Zn  0.62908222  0.47198709  0.81606463     1.49100
Zn510      Zn  0.60816740  0.51539900  0.87451683     1.49500
O511        O  0.59823496  0.49595815  0.82600680    -1.81100
O512        O  0.55218185  0.51844634  0.75749506    -0.71700
O513        O  0.56793668  0.44216455  0.83862152    -0.71600
O514        O  0.63783521  0.47044035  0.75459106    -0.71100
O515        O  0.53288925  0.48569829  0.78765864    -0.71800
O516        O  0.61466859  0.50352692  0.73122217    -0.71400
O517        O  0.61563972  0.43835341  0.83312726    -0.71900
O518        O  0.64618397  0.50417034  0.89869263    -0.71300
O519        O  0.54456219  0.48774340  0.88756646    -0.72100
O520        O  0.66459348  0.47868555  0.85181661    -0.71500
O521        O  0.57741480  0.51141247  0.91843729    -0.71900
O522        O  0.61385756  0.55123767  0.85931418    -0.71800
O523        O  0.60733738  0.55207575  0.79113660    -0.71600
C524        C  0.53176294  0.50299109  0.76130288     0.80200
C525        C  0.59081797  0.42932612  0.84026873     0.80600
C526        C  0.62979480  0.48443826  0.72523135     0.79600
C527        C  0.66662517  0.49065460  0.88554672     0.80000
C528        C  0.55356339  0.49976237  0.91859655     0.81100
C529        C  0.61400096  0.56260783  0.82492167     0.80200
Zn530      Zn  0.59254394  0.22574405  0.97171729     1.49700
Zn531      Zn  0.62830363  0.27155246  0.93465081     1.49400
Zn532      Zn  0.60729464  0.22834160  0.87617359     1.49100
Zn533      Zn  0.56099508  0.26509905  0.91809327     1.49500
O534        O  0.59747092  0.24762748  0.92483030    -1.81100
O535        O  0.61405801  0.23969420  0.01915233    -0.71700
O536        O  0.66363091  0.26498878  0.89846845    -0.71600
O537        O  0.61397000  0.19265000  0.89137183    -0.71100
O538        O  0.63731922  0.27279773  0.99602918    -0.71800
O539        O  0.60668071  0.19140659  0.95935655    -0.71400
O540        O  0.64478855  0.24017457  0.85094352    -0.71900
O541        O  0.54281845  0.25492686  0.86508686    -0.71300
O542        O  0.61485219  0.30520510  0.91765092    -0.72100
O543        O  0.57559968  0.23148387  0.83347945    -0.71500
O544        O  0.56723517  0.30134855  0.91103039    -0.71900
O545        O  0.53283249  0.25859319  0.96481165    -0.71800
O546        O  0.55144095  0.22508268  0.99345953    -0.71600
C547        C  0.62934727  0.25865520  0.02523610     0.80200
C548        C  0.66535436  0.25350662  0.86422305     0.80600
C549        C  0.61391053  0.18111593  0.92559579     0.79600
C550        C  0.55142028  0.24265421  0.83410710     0.80000
C551        C  0.59012209  0.31417880  0.90968825     0.81100
C552        C  0.53146644  0.24103935  0.99063860     0.80200
Zn553      Zn  0.09166941  0.01762596  0.78107838     1.49700
Zn554      Zn  0.06008791  0.97795797  0.83452255     1.49400
Zn555      Zn  0.12711624  0.97127482  0.81661976     1.49100
Zn556      Zn  0.10699059  0.01399784  0.87640295     1.49500
O557        O  0.09659036  0.99530137  0.82740260    -1.81100
O558        O  0.05046928  0.01841731  0.75965846    -0.71700
O559        O  0.06619894  0.94159611  0.84063901    -0.71600
O560        O  0.13555867  0.97029290  0.75526453    -0.71100
O561        O  0.03157480  0.98505155  0.78843931    -0.71800
O562        O  0.11316354  0.00404591  0.73303345    -0.71400
O563        O  0.11377632  0.93760847  0.83359585    -0.71900
O564        O  0.14488770  0.00219539  0.90001880    -0.71300
O565        O  0.04253892  0.98772942  0.88823251    -0.72100
O566        O  0.16297858  0.97769151  0.85145163    -0.71500
O567        O  0.07606768  0.01034219  0.91988031    -0.71900
O568        O  0.11320818  0.04980962  0.86247247    -0.71800
O569        O  0.10574142  0.05191531  0.79458840    -0.71600
C570        C  0.03029723  0.00265752  0.76268557     0.80200
C571        C  0.08904222  0.92867658  0.84162811     0.80600
C572        C  0.12798994  0.98484712  0.72645127     0.79600
C573        C  0.16527465  0.98904625  0.88571268     0.80000
C574        C  0.05172900  0.99946792  0.91944847     0.81100
C575        C  0.11300275  0.06178109  0.82870889     0.80200
Zn576      Zn  0.10638787  0.72728360  0.87612508     1.49700
Zn577      Zn  0.12715863  0.77057552  0.93472831     1.49400
Zn578      Zn  0.06003318  0.76425162  0.91734210     1.49100
Zn579      Zn  0.09145999  0.72488690  0.97163267     1.49500
O580        O  0.09637566  0.74666335  0.92463580    -1.81100
O581        O  0.14430961  0.73867035  0.85217849    -0.71700
O582        O  0.11397113  0.80420262  0.91732436    -0.71600
O583        O  0.04336257  0.75554867  0.86261727    -0.71100
O584        O  0.16278038  0.76376615  0.89956282    -0.71800
O585        O  0.07582464  0.73137969  0.83194574    -0.71400
O586        O  0.06620304  0.80068866  0.91274042    -0.71900
O587        O  0.04997885  0.72345823  0.99172309    -0.71300
O588        O  0.13566997  0.77220766  0.99610625    -0.72100
O589        O  0.03073708  0.75643012  0.96209349    -0.71500
O590        O  0.11204625  0.73942826  0.01972385    -0.71900
O591        O  0.10656863  0.69075773  0.95955572    -0.71800
O592        O  0.11264820  0.69151998  0.89128081    -0.71600
C593        C  0.16478087  0.75200845  0.86564533     0.80200
C594        C  0.08917132  0.81338615  0.91060547     0.80600
C595        C  0.05226530  0.74346662  0.83160404     0.79600
C596        C  0.02942352  0.73879394  0.98778923     0.80000
C597        C  0.12733884  0.75843511  0.02558028     0.81100
C598        C  0.11337120  0.68026877  0.92576715     0.80200
Zn599      Zn  0.17609477  0.02026755  0.47220235     1.49700
Zn600      Zn  0.16082433  0.01792637  0.37667989     1.49400
Zn601      Zn  0.20764611  0.98117263  0.41758967     1.49100
Zn602      Zn  0.14056047  0.97447326  0.43495550     1.49500
O603        O  0.17116251  0.99855439  0.42507666    -1.81100
O604        O  0.16165379  0.05460636  0.46005078    -0.71700
O605        O  0.19201259  0.01494529  0.33333579    -0.71600
O606        O  0.23654690  0.98826123  0.46316578    -0.71100
O607        O  0.15427138  0.05354610  0.39207479    -0.71800
O608        O  0.21746352  0.02123161  0.49296368    -0.71400
O609        O  0.22496467  0.99122349  0.36395380    -0.71900
O610        O  0.15397342  0.94089712  0.41764369    -0.71300
O611        O  0.12310953  0.00619476  0.35211586    -0.72100
O612        O  0.20159667  0.94479802  0.41121174    -0.71500
O613        O  0.10498185  0.98107524  0.39974885    -0.71900
O614        O  0.13167286  0.97295140  0.49610787    -0.71800
O615        O  0.15484380  0.00592508  0.51989221    -0.71600
C616        C  0.15435571  0.06497967  0.42637441     0.80200
C617        C  0.21610744  0.00365897  0.33331368     0.80600
C618        C  0.23788234  0.00575666  0.48911118     0.79600
C619        C  0.17872916  0.93193087  0.40983805     0.80000
C620        C  0.10277680  0.99274492  0.36578112     0.81100
C621        C  0.13957287  0.98688176  0.52558457     0.80200
Zn622      Zn  0.16051989  0.73069780  0.37575135     1.49700
Zn623      Zn  0.20726407  0.76736055  0.33438853     1.49400
Zn624      Zn  0.17585385  0.72794991  0.28035988     1.49100
Zn625      Zn  0.13992876  0.77391462  0.31698110     1.49500
O626        O  0.17075167  0.74993074  0.32712697    -1.81100
O627        O  0.19127632  0.73440533  0.41938469    -0.71700
O628        O  0.23635758  0.76002828  0.28898291    -0.71600
O629        O  0.16172553  0.69358770  0.29305417    -0.71100
O630        O  0.22420250  0.75813461  0.38874935    -0.71800
O631        O  0.15419718  0.69493843  0.36098631    -0.71400
O632        O  0.21711283  0.72717957  0.25909697    -0.71900
O633        O  0.13062440  0.77474733  0.25572104    -0.71300
O634        O  0.20110970  0.80374840  0.33975187    -0.72100
O635        O  0.15428735  0.74181814  0.23266710    -0.71500
O636        O  0.15349646  0.80766884  0.33315644    -0.71900
O637        O  0.10460856  0.76788438  0.35338640    -0.71800
O638        O  0.12295844  0.74252063  0.40044015    -0.71600
C639        C  0.21509534  0.74606884  0.41967022     0.80200
C640        C  0.23757137  0.74260623  0.26286751     0.80600
C641        C  0.15439920  0.68334572  0.32683362     0.79600
C642        C  0.13867450  0.76061587  0.22655340     0.80000
C643        C  0.17826109  0.81665624  0.34079283     0.81100
C644        C  0.10268344  0.75624756  0.38744476     0.80200
Zn645      Zn  0.84083072  0.27258874  0.71972752     1.49700
Zn646      Zn  0.85745920  0.27010441  0.62444884     1.49400
Zn647      Zn  0.87777385  0.22702159  0.68399453     1.49100
Zn648      Zn  0.81053745  0.23325223  0.66443890     1.49500
O649        O  0.84682412  0.25077481  0.67287075    -1.81100
O650        O  0.85484198  0.30698800  0.70757532    -0.71700
O651        O  0.89529078  0.25826888  0.60046173    -0.71600
O652        O  0.88650211  0.22645219  0.74548923    -0.71100
O653        O  0.86376099  0.30579399  0.63995443    -0.71800
O654        O  0.86182896  0.25892154  0.76812722    -0.71400
O655        O  0.91335687  0.23302081  0.64794817    -0.71900
O656        O  0.81705555  0.19698405  0.65957239    -0.71300
O657        O  0.82685224  0.26677983  0.58012541    -0.72100
O658        O  0.86448291  0.19307712  0.66860708    -0.71500
O659        O  0.79395954  0.24265347  0.60989474    -0.71900
O660        O  0.78099646  0.24004086  0.70938121    -0.71800
O661        O  0.79933825  0.27298186  0.74007469    -0.71600
C662        C  0.86283188  0.31730388  0.67417798     0.80200
C663        C  0.91552480  0.24462512  0.61387011     0.80600
C664        C  0.87773788  0.24035070  0.77455917     0.79600
C665        C  0.83986490  0.18403762  0.66022198     0.80000
C666        C  0.80304741  0.25506831  0.57935599     0.81100
C667        C  0.77923944  0.25726996  0.73577062     0.80200
Zn668      Zn  0.81743618  0.97427099  0.58228396     1.49700
Zn669      Zn  0.88295606  0.98813568  0.55870109     1.49400
Zn670      Zn  0.82996286  0.02561610  0.54157515     1.49100
Zn671      Zn  0.85250123  0.01561584  0.63194699     1.49500
O672        O  0.84586987  0.00073370  0.57842529    -1.81100
O673        O  0.83726293  0.94109933  0.57793316    -0.71700
O674        O  0.88932100  0.99957754  0.49960922    -0.71600
O675        O  0.79030677  0.01666619  0.52040088    -0.71100
O676        O  0.88202583  0.95105144  0.55879050    -0.71800
O677        O  0.78662292  0.97730262  0.53749002    -0.71400
O678        O  0.85352226  0.02646038  0.49031082    -0.71900
O679        O  0.84802495  0.05204439  0.62938272    -0.71300
O680        O  0.91630580  0.99729505  0.59750428    -0.72100
O681        O  0.82949361  0.05940255  0.56723450    -0.71500
O682        O  0.89239271  0.00908817  0.65377308    -0.71900
O683        O  0.82266300  0.00437171  0.67181733    -0.71800
O684        O  0.79658276  0.97691664  0.63698736    -0.71600
C685        C  0.86294334  0.93512024  0.56780858     0.80200
C686        C  0.87527652  0.01464608  0.47712940     0.80600
C687        C  0.77755406  0.99607216  0.51795376     0.79600
C688        C  0.83806481  0.06670230  0.60247755     0.80000
C689        C  0.91580580  0.00348354  0.63552727     0.81100
C690        C  0.80138189  0.98979216  0.66905443     0.80200
Zn691      Zn  0.93603774  0.21985710  0.04030193     1.49700
Zn692      Zn  0.94895427  0.27048032  0.08390497     1.49400
Zn693      Zn  0.88318167  0.25729128  0.05938134     1.49100
Zn694      Zn  0.91351155  0.22841168  0.13116765     1.49500
O695        O  0.92030329  0.24421365  0.07841564    -1.81100
O696        O  0.97543107  0.22938385  0.01857809    -0.71700
O697        O  0.92918157  0.30376281  0.08101820    -0.71600
O698        O  0.87649570  0.24660016  0.99987617    -0.71100
O699        O  0.97989777  0.26813394  0.03896107    -0.71800
O700        O  0.91195867  0.21953181  0.98948100    -0.71400
O701        O  0.88440479  0.29438421  0.06111160    -0.71900
O702        O  0.87369231  0.23452169  0.15329180    -0.71300
O703        O  0.96942802  0.26698313  0.13901088    -0.72100
O704        O  0.84976718  0.24784069  0.09806126    -0.71500
O705        O  0.94288424  0.23906257  0.17200161    -0.71900
O706        O  0.91819969  0.19211813  0.12705360    -0.71800
O707        O  0.93700490  0.18567760  0.06477633    -0.71600
C708        C  0.98851586  0.24987951  0.01766923     0.80200
C709        C  0.90355903  0.31005043  0.07110811     0.80600
C710        C  0.89023973  0.23160898  0.97685441     0.79600
C711        C  0.85031279  0.24081416  0.13567379     0.80000
C712        C  0.96417237  0.25367652  0.17046879     0.81100
C713        C  0.92839448  0.17787458  0.09971854     0.80200
Zn714      Zn  0.95730078  0.01242185  0.16844891     1.49700
Zn715      Zn  0.88982831  0.01790397  0.18465356     1.49400
Zn716      Zn  0.91203184  0.97505080  0.12658596     1.49100
Zn717      Zn  0.92641511  0.97278095  0.22243392     1.49500
O718        O  0.92122636  0.99447043  0.17528926    -1.81100
O719        O  0.95035763  0.04853135  0.16176954    -0.71700
O720        O  0.85493217  0.01078132  0.14813008    -0.71600
O721        O  0.94392339  0.97807003  0.08436527    -0.71100
O722        O  0.90265592  0.05182254  0.16815936    -0.71800
O723        O  0.97585391  0.00242611  0.11564262    -0.71400
O724        O  0.87460127  0.98635423  0.10070121    -0.71900
O725        O  0.91286464  0.93824780  0.20992882    -0.71300
O726        O  0.88026403  0.01899576  0.24577028    -0.72100
O727        O  0.90575393  0.93949009  0.14189416    -0.71500
O728        O  0.90446956  0.98662401  0.26987220    -0.71900
O729        O  0.96762887  0.97261187  0.24391072    -0.71800
O730        O  0.98563797  0.00623159  0.21485460    -0.71600
C731        C  0.92727712  0.06111444  0.16056688     0.80200
C732        C  0.85365996  0.99930847  0.11385534     0.80600
C733        C  0.96781741  0.98962678  0.08499014     0.79600
C734        C  0.90586865  0.92794389  0.17607015     0.80000
C735        C  0.88849344  0.00526826  0.27537528     0.81100
C736        C  0.98740407  0.98871491  0.24067770     0.80200
C737        C  0.93018039  0.15228784  0.10929218    -0.15500
C738        C  0.93059354  0.13130514  0.12080216     0.08600
C739        C  0.93003959  0.10711709  0.13608837     0.10400
C740        C  0.92896472  0.08634778  0.14857371    -0.16300
C741        C  0.88205899  0.01696314  0.43422519    -0.15500
C742        C  0.88268098  0.01720473  0.39707962     0.08600
C743        C  0.88117948  0.01527679  0.35375406     0.10400
C744        C  0.88178211  0.01166538  0.31710859    -0.16300
C745        C  0.88379891  0.23429810  0.81667297    -0.15500
C746        C  0.88403992  0.23101967  0.85344155     0.08600
C747        C  0.88241192  0.22936045  0.89682065     0.10400
C748        C  0.88314126  0.22961513  0.93398356    -0.16300
C749        C  0.83791853  0.15862032  0.64954147    -0.15500
C750        C  0.83676429  0.13763828  0.63816585     0.08600
C751        C  0.83618548  0.11324089  0.62391008     0.10400
C752        C  0.83652979  0.09220217  0.61272420    -0.16300
C753        C  0.07683317  0.99046696  0.34146785    -0.15500
C754        C  0.05604815  0.98892330  0.31899234     0.08600
C755        C  0.03229813  0.98774954  0.29140825     0.10400
C756        C  0.01204883  0.98755982  0.26781285    -0.16300
C757        C  0.18069051  0.90680496  0.39712413    -0.15500
C758        C  0.18140032  0.88624123  0.38357018     0.08600
C759        C  0.18122368  0.86243387  0.36652768     0.10400
C760        C  0.18028049  0.84185051  0.35308933    -0.16300
C761        C  0.13325017  0.76505368  0.06746422    -0.15500
C762        C  0.13340970  0.76826636  0.10422784     0.08600
C763        C  0.13160062  0.76884888  0.14763884     0.10400
C764        C  0.13206426  0.76652371  0.18458553    -0.16300
C765        C  0.98594315  0.98941780  0.04936295    -0.15500
C766        C  0.00141495  0.99201594  0.01991322     0.08600
C767        C  0.01935024  0.99637386  0.98571251     0.10400
C768        C  0.03440296  0.99920745  0.95588181    -0.16300
C769        C  0.94219021  0.00401557  0.65922305    -0.15500
C770        C  0.96283472  0.00446411  0.68214212     0.08600
C771        C  0.98607498  0.00468228  0.71073549     0.10400
C772        C  0.00587824  0.00427328  0.73512800    -0.16300
C773        C  0.13419992  0.97897369  0.68438389    -0.15500
C774        C  0.13451910  0.97662492  0.64745834     0.08600
C775        C  0.13278318  0.97718254  0.60408530     0.10400
C776        C  0.13321046  0.98037093  0.56734031    -0.16300
C777        C  0.08707062  0.90352942  0.85420241    -0.15500
C778        C  0.08628141  0.88295623  0.86770396     0.08600
C779        C  0.08634744  0.85914344  0.88472418     0.10400
C780        C  0.08721247  0.83856194  0.89818296    -0.16300
C781        C  0.69096046  0.25584450  0.83905042    -0.15500
C782        C  0.71126442  0.25729707  0.81558777     0.08600
C783        C  0.73444542  0.25831530  0.78688022     0.10400
C784        C  0.75441329  0.25841994  0.76271150    -0.16300
C785        C  0.58872673  0.40415312  0.85260035    -0.15500
C786        C  0.58769699  0.38357636  0.86602137     0.08600
C787        C  0.58747781  0.35979394  0.88312370     0.10400
C788        C  0.58819771  0.33926705  0.89680521    -0.16300
C789        C  0.73631551  0.24176245  0.45136481    -0.15500
C790        C  0.75288581  0.24540122  0.47929727     0.08600
C791        C  0.77129876  0.25095266  0.51257684     0.10400
C792        C  0.78626920  0.25451690  0.54232141    -0.16300
C793        C  0.76173601  0.24066976  0.23793880    -0.15500
C794        C  0.78113168  0.23977018  0.21289877     0.08600
C795        C  0.80382095  0.23976602  0.18337996     0.10400
C796        C  0.82409117  0.24019799  0.15976220    -0.16300
C797        C  0.63289383  0.26595380  0.18453334    -0.15500
C798        C  0.63265735  0.26746373  0.14747538     0.08600
C799        C  0.63515794  0.26727788  0.10414147     0.10400
C800        C  0.63544363  0.26476264  0.06724111    -0.16300
C801        C  0.63555181  0.47797155  0.68321007    -0.15500
C802        C  0.63486640  0.47533326  0.64631267     0.08600
C803        C  0.63164309  0.47579747  0.60303052     0.10400
C804        C  0.63095097  0.47919076  0.56630722    -0.16300
C805        C  0.67973093  0.34151930  0.35849339    -0.15500
C806        C  0.68015364  0.36260809  0.36941045     0.08600
C807        C  0.67967455  0.38692340  0.38408350     0.10400
C808        C  0.67853022  0.40771953  0.39640772    -0.16300
C809        C  0.89636277  0.84270933  0.56829853    -0.15500
C810        C  0.88843967  0.86381646  0.56762726     0.08600
C811        C  0.87879413  0.88847295  0.56711418     0.10400
C812        C  0.87097703  0.90961137  0.56709165    -0.16300
C813        C  0.98727191  0.76080679  0.70319348    -0.15500
C814        C  0.00345430  0.75656858  0.73134687     0.08600
C815        C  0.02122932  0.74979262  0.76468811     0.10400
C816        C  0.03573020  0.74507864  0.79445375    -0.16300
C817        C  0.07727205  0.75892993  0.41286221    -0.15500
C818        C  0.05730648  0.76054051  0.43685470     0.08600
C819        C  0.03460287  0.76139548  0.46629727     0.10400
C820        C  0.01499417  0.76086056  0.49101324    -0.16300
C821        C  0.87167880  0.34260486  0.67531341    -0.15500
C822        C  0.87984233  0.36363127  0.67659984     0.08600
C823        C  0.88947198  0.38826410  0.67822827     0.10400
C824        C  0.89698623  0.40946497  0.67947596    -0.16300
C825        C  0.82135493  0.50518667  0.59728223    -0.15500
C826        C  0.80067815  0.50596954  0.57449802     0.08600
C827        C  0.77768371  0.50667468  0.54559996     0.10400
C828        C  0.75822704  0.50667434  0.52068167    -0.16300
C829        C  0.93256979  0.66017680  0.61068358    -0.15500
C830        C  0.93259590  0.63900322  0.62106740     0.08600
C831        C  0.93140204  0.61444057  0.63428651     0.04000
C832        C  0.92962904  0.59331544  0.64464361    -0.16300
C833        C  0.87040303  0.40248729  0.07771458    -0.15500
C834        C  0.87836429  0.38140217  0.07596429     0.08600
C835        C  0.88792852  0.35674934  0.07363215     0.10400
C836        C  0.89564476  0.33559600  0.07200252    -0.16300
C837        C  0.78327891  0.49134503  0.20740265    -0.15500
C838        C  0.76802649  0.49506212  0.23679975     0.08600
C839        C  0.74994830  0.50068264  0.27041617     0.10400
C840        C  0.73442553  0.50420125  0.29959155    -0.16300
C841        C  0.69242384  0.48868730  0.91036032    -0.15500
C842        C  0.71275578  0.48767661  0.93381159     0.08600
C843        C  0.73581939  0.48721906  0.96271385     0.10400
C844        C  0.75558164  0.48749083  0.98719354    -0.16300
C845        C  0.88486951  0.51111274  0.93706811    -0.15500
C846        C  0.88493552  0.51411783  0.90025652     0.08600
C847        C  0.88277293  0.51534812  0.85691339     0.10400
C848        C  0.88299015  0.51486958  0.81976482    -0.16300
C849        C  0.86995674  0.83634214  0.17392421    -0.15500
C850        C  0.87840219  0.85727947  0.17478188     0.08600
C851        C  0.88871890  0.88168972  0.17585224     0.10400
C852        C  0.89713056  0.90264047  0.17637980    -0.16300
C853        C  0.94031354  0.73705611  0.08933102    -0.15500
C854        C  0.96083347  0.73613104  0.06621771     0.08600
C855        C  0.98430374  0.73595203  0.03800783     0.10400
C856        C  0.00448911  0.73667041  0.01428225    -0.16300
C857        C  0.88578725  0.73158788  0.31760457    -0.15500
C858        C  0.88665289  0.73034067  0.35468639     0.08600
C859        C  0.88538162  0.73137752  0.39812398     0.10400
C860        C  0.88621605  0.73365356  0.43507209    -0.16300
C861        C  0.84020262  0.65189694  0.15029274    -0.15500
C862        C  0.83950843  0.63117030  0.13740055     0.08600
C863        C  0.83916845  0.60722941  0.12080512     0.10400
C864        C  0.83946652  0.58661067  0.10739835    -0.16300
C865        C  0.64805664  0.65485976  0.82233421    -0.15500
C866        C  0.64018321  0.63373261  0.82243872     0.08600
C867        C  0.63052987  0.60908587  0.82324192     0.10400
C868        C  0.62254225  0.58799567  0.82409387    -0.16300
C869        C  0.73483647  0.74024885  0.95265361    -0.15500
C870        C  0.75018120  0.74213610  0.98236335     0.08600
C871        C  0.76810766  0.74569592  0.01679232     0.10400
C872        C  0.78330702  0.74802005  0.04656982    -0.16300
C873        C  0.76178907  0.74285789  0.73348901    -0.15500
C874        C  0.78170120  0.74366568  0.70930176     0.08600
C875        C  0.80511587  0.74526182  0.68112318     0.10400
C876        C  0.82591266  0.74669944  0.65859846    -0.16300
C877        C  0.64898996  0.08912315  0.92678319    -0.15500
C878        C  0.64101775  0.11022491  0.92692249     0.08600
C879        C  0.63112061  0.13480709  0.92666260     0.10400
C880        C  0.62284883  0.15582426  0.92621607    -0.16300
C881        C  0.73188556  0.99972765  0.79473723    -0.15500
C882        C  0.74682444  0.99655537  0.76486582     0.08600
C883        C  0.76509068  0.99183451  0.73112344     0.10400
C884        C  0.78143012  0.98915625  0.70264687    -0.16300
C885        C  0.76412908  0.00297686  0.01328730    -0.15500
C886        C  0.78432329  0.00299736  0.03700164     0.08600
C887        C  0.80770714  0.00229241  0.06529729     0.10400
C888        C  0.82809939  0.00118458  0.08859091    -0.16300
C889        C  0.67728110  0.83904833  0.85633523    -0.15500
C890        C  0.67762521  0.85974157  0.86937715     0.08600
C891        C  0.67743145  0.88377018  0.88558147     0.10400
C892        C  0.67688070  0.90450211  0.89843631    -0.16300
C893        C  0.61737110  0.65721735  0.43067309    -0.15500
C894        C  0.62529179  0.63613264  0.43068508     0.08600
C895        C  0.63525853  0.61162552  0.42980761     0.10400
C896        C  0.64363099  0.59067556  0.42872405    -0.16300
C897        C  0.75432345  0.75168015  0.26454157    -0.15500
C898        C  0.73423517  0.75237429  0.28843944     0.08600
C899        C  0.71084597  0.75269807  0.31678276     0.10400
C900        C  0.69035063  0.75255375  0.33999130    -0.16300
C901        C  0.63555943  0.76669062  0.56759761    -0.15500
C902        C  0.63555852  0.76921800  0.60449647     0.08600
C903        C  0.63301466  0.76871238  0.64781125     0.10400
C904        C  0.63281219  0.76545660  0.68454961    -0.16300
C905        C  0.61868577  0.09159527  0.32485948    -0.15500
C906        C  0.62701284  0.11259357  0.32372876     0.08600
C907        C  0.63715088  0.13711152  0.32245623     0.10400
C908        C  0.64528190  0.15816957  0.32154670    -0.16300
C909        C  0.75263084  0.99404881  0.49140490    -0.15500
C910        C  0.73249847  0.99352241  0.46756907     0.08600
C911        C  0.70916149  0.99386752  0.43912719     0.10400
C912        C  0.68882788  0.99470247  0.41566551    -0.16300
C913        C  0.63534071  0.98224086  0.18649497    -0.15500
C914        C  0.63599589  0.97920463  0.14967806     0.08600
C915        C  0.63440347  0.97871712  0.10621735     0.10400
C916        C  0.63471781  0.98099416  0.06923278    -0.16300
C917        C  0.59122060  0.90722308  0.35544884    -0.15500
C918        C  0.59123483  0.88643140  0.36802162     0.08600
C919        C  0.59170447  0.86230484  0.38375232     0.10400
C920        C  0.59229313  0.84153435  0.39639411    -0.16300
C921        C  0.48380675  0.99349524  0.54946695    -0.15500
C922        C  0.49879967  0.99592442  0.51945127     0.08600
C923        C  0.51636492  0.00015170  0.48477068     0.10400
C924        C  0.53143928  0.00294853  0.45492643    -0.16300
C925        C  0.57575638  0.99127333  0.84358342    -0.15500
C926        C  0.55508063  0.99070029  0.82074474     0.08600
C927        C  0.53166256  0.99075214  0.79246707     0.10400
C928        C  0.51165876  0.99143390  0.76844034    -0.16300
C929        C  0.32710677  0.00701758  0.59051529    -0.15500
C930        C  0.30655383  0.00794694  0.56746948     0.08600
C931        C  0.28297591  0.00820284  0.53945004     0.10400
C932        C  0.26273917  0.00761924  0.51580907    -0.16300
C933        C  0.53365453  0.24278870  0.79806308    -0.15500
C934        C  0.51835771  0.24591379  0.76854141     0.08600
C935        C  0.50038045  0.25088658  0.73456481     0.10400
C936        C  0.48503170  0.25402026  0.70509952    -0.16300
C937        C  0.57435349  0.25340425  0.40908272    -0.15500
C938        C  0.55366593  0.25429205  0.43186394     0.08600
C939        C  0.53039009  0.25520778  0.46031915     0.10400
C940        C  0.51062188  0.25545946  0.48475494    -0.16300
C941        C  0.42938283  0.09186064  0.64969235    -0.15500
C942        C  0.42988167  0.11261196  0.63689669     0.08600
C943        C  0.42950243  0.13663027  0.62061962     0.10400
C944        C  0.42855511  0.15728643  0.60744066    -0.16300
C945        C  0.28176813  0.99269823  0.20360578    -0.15500
C946        C  0.26647359  0.99585955  0.23309375     0.08600
C947        C  0.24861390  0.00069745  0.26720445     0.10400
C948        C  0.23350915  0.00365944  0.29694866    -0.16300
C949        C  0.43964578  0.00354735  0.16240496    -0.15500
C950        C  0.46035072  0.00460807  0.18515437     0.08600
C951        C  0.48403260  0.00524002  0.21297932     0.10400
C952        C  0.50428674  0.00516188  0.23661344    -0.16300
C953        C  0.19138613  0.98685000  0.90966369    -0.15500
C954        C  0.21210806  0.98574299  0.93232528     0.08600
C955        C  0.23559907  0.98539063  0.96041474     0.10400
C956        C  0.25559853  0.98604220  0.98441330    -0.16300
C957        C  0.38130695  0.01751205  0.81841182    -0.15500
C958        C  0.38104093  0.01967978  0.85536773     0.08600
C959        C  0.38332335  0.01860350  0.89866456     0.10400
C960        C  0.38351576  0.01492130  0.93528613    -0.16300
C961        C  0.44343337  0.24095982  0.09421157    -0.15500
C962        C  0.46409154  0.24014595  0.07134904     0.08600
C963        C  0.48736435  0.23955405  0.04283600     0.10400
C964        C  0.50715691  0.23969227  0.01842045    -0.16300
C965        C  0.38367213  0.22794399  0.31945674    -0.15500
C966        C  0.38379104  0.22721442  0.35661517     0.08600
C967        C  0.38157363  0.22848969  0.39997292     0.10400
C968        C  0.38165005  0.23168897  0.43675727    -0.16300
C969        C  0.33652142  0.15450051  0.13880490    -0.15500
C970        C  0.33557676  0.13352884  0.12731247     0.08600
C971        C  0.33547382  0.10915833  0.11287099     0.10400
C972        C  0.33629895  0.08819576  0.10131404    -0.16300
C973        C  0.14940141  0.15331659  0.83223421    -0.15500
C974        C  0.14094988  0.13236696  0.83134131     0.08600
C975        C  0.13051408  0.10797299  0.83005461     0.10400
C976        C  0.12195069  0.08705612  0.82914192    -0.16300
C977        C  0.23242693  0.24536087  0.96211515    -0.15500
C978        C  0.24704174  0.24945534  0.99201146     0.08600
C979        C  0.26506210  0.25508370  0.02565752     0.10400
C980        C  0.28150962  0.25819500  0.05389265    -0.16300
C981        C  0.07711995  0.25233637  0.91495645    -0.15500
C982        C  0.05665564  0.25321144  0.93824713     0.08600
C983        C  0.03333401  0.25329326  0.96681981     0.10400
C984        C  0.01330458  0.25240499  0.99086965    -0.16300
C985        C  0.26469449  0.23899336  0.74258275    -0.15500
C986        C  0.28464079  0.23925302  0.71842929     0.08600
C987        C  0.30766794  0.24041935  0.68956252     0.10400
C988        C  0.32778819  0.24191010  0.66583509    -0.16300
C989        C  0.14966293  0.58859662  0.92894177    -0.15500
C990        C  0.14191927  0.60976098  0.92833080     0.08600
C991        C  0.13165214  0.63424325  0.92746172     0.10400
C992        C  0.12285774  0.65510940  0.92666714    -0.16300
C993        C  0.01193635  0.49374455  0.76178081    -0.15500
C994        C  0.03151002  0.49322799  0.78657220     0.08600
C995        C  0.05423899  0.49360931  0.81603500     0.10400
C996        C  0.07445341  0.49419036  0.83974776    -0.16300
C997        C  0.17677132  0.33808579  0.85274442    -0.15500
C998        C  0.17705526  0.35898558  0.86475060     0.08600
C999        C  0.17688779  0.38322184  0.87993862     0.10400
C1000       C  0.17630106  0.40418704  0.89159349    -0.16300
C1001       C  0.14534890  0.09025297  0.42714030    -0.15500
C1002       C  0.13701991  0.11125065  0.42763830     0.08600
C1003       C  0.12714522  0.13583844  0.42817958     0.10400
C1004       C  0.11939970  0.15699576  0.42867064    -0.16300
C1005       C  0.98348202  0.25386812  0.20487996    -0.15500
C1006       C  0.99912770  0.25066017  0.23402160     0.08600
C1007       C  0.01707331  0.24528031  0.26789384     0.10400
C1008       C  0.03277657  0.24166442  0.29684197    -0.16300
C1009       C  0.94120211  0.24205633  0.58891701    -0.15500
C1010       C  0.96135493  0.24065155  0.56518270     0.08600
C1011       C  0.98419067  0.24004745  0.53588936     0.10400
C1012       C  0.00384023  0.24067364  0.51121906    -0.16300
C1013       C  0.25626172  0.25250241  0.26636431    -0.15500
C1014       C  0.23664692  0.25298430  0.29108703     0.08600
C1015       C  0.21362430  0.25267749  0.32006895     0.10400
C1016       C  0.19309303  0.25214004  0.34321621    -0.16300
C1017       C  0.13310224  0.26145294  0.56888549    -0.15500
C1018       C  0.13408883  0.26175877  0.60607911     0.08600
C1019       C  0.13311424  0.26068475  0.64962123     0.10400
C1020       C  0.13396884  0.25825010  0.68659861    -0.16300
C1021       C  0.11875016  0.59151515  0.32500572    -0.15500
C1022       C  0.12671399  0.61261550  0.32544862     0.08600
C1023       C  0.13688271  0.63712035  0.32591513     0.10400
C1024       C  0.14538433  0.65806945  0.32631098    -0.16300
C1025       C  0.98067983  0.49401663  0.54614324    -0.15500
C1026       C  0.99615887  0.49785339  0.51704185     0.08600
C1027       C  0.01416884  0.50376707  0.48351247     0.10400
C1028       C  0.03015529  0.50756576  0.45496220    -0.16300
C1029       C  0.93990239  0.50250800  0.16550564    -0.15500
C1030       C  0.96002671  0.50444183  0.18913501     0.08600
C1031       C  0.98298449  0.50599654  0.21806574     0.10400
C1032       C  0.00281786  0.50618954  0.24240977    -0.16300
C1033       C  0.13272294  0.48796155  0.18543295    -0.15500
C1034       C  0.13334963  0.48704115  0.14826609     0.08600
C1035       C  0.13180877  0.48630439  0.10476717     0.10400
C1036       C  0.13237129  0.48612170  0.06756713    -0.16300
C1037       C  0.08762962  0.34083536  0.39434075    -0.15500
C1038       C  0.08687160  0.36195615  0.38362586     0.08600
C1039       C  0.08681363  0.38645066  0.36982021     0.10400
C1040       C  0.08742779  0.40758987  0.35919411    -0.16300
C1041       C  0.39892996  0.83860983  0.07730211    -0.15500
C1042       C  0.39074574  0.85961335  0.07716930     0.08600
C1043       C  0.38050398  0.88403023  0.07712805     0.10400
C1044       C  0.37194062  0.90492550  0.07716379    -0.16300
C1045       C  0.53194792  0.74336592  0.29996653    -0.15500
C1046       C  0.51651673  0.74512898  0.27032251     0.08600
C1047       C  0.49860780  0.74840839  0.23579233     0.10400
C1048       C  0.48351984  0.75048143  0.20584387    -0.16300
C1049       C  0.51358222  0.75329588  0.98776369    -0.15500
C1050       C  0.53362175  0.75367317  0.96379856     0.08600
C1051       C  0.55688524  0.75343312  0.93529806     0.10400
C1052       C  0.57726782  0.75267204  0.91195829    -0.16300
C1053       C  0.26227370  0.74077397  0.23579152    -0.15500
C1054       C  0.28227694  0.74003003  0.21171132     0.08600
C1055       C  0.30566899  0.73991052  0.18330421     0.10400
C1056       C  0.32628645  0.74044758  0.16029541    -0.16300
C1057       C  0.39992322  0.40316254  0.18204365    -0.15500
C1058       C  0.39249553  0.38192947  0.18344908     0.08600
C1059       C  0.38291148  0.35725355  0.18500348     0.10400
C1060       C  0.37482017  0.33618594  0.18589480    -0.16300
C1061       C  0.48776326  0.48600136  0.04763614    -0.15500
C1062       C  0.50403331  0.48938547  0.01925027     0.08600
C1063       C  0.52200907  0.49494376  0.98548270     0.10400
C1064       C  0.53671981  0.49874804  0.95554939    -0.16300
C1065       C  0.32604126  0.49774521  0.08802748    -0.15500
C1066       C  0.30555255  0.49866567  0.06484123     0.08600
C1067       C  0.28241409  0.49965732  0.03609057     0.10400
C1068       C  0.26256572  0.49989143  0.01174396    -0.16300
C1069       C  0.57659043  0.49254880  0.33736406    -0.15500
C1070       C  0.55648062  0.49136054  0.31357087     0.08600
C1071       C  0.53353830  0.49059836  0.28452654     0.10400
C1072       C  0.51376617  0.49072868  0.26008053    -0.16300
C1073       C  0.42726673  0.65402303  0.10177463    -0.15500
C1074       C  0.42787399  0.63304049  0.11346010     0.08600
C1075       C  0.42814779  0.60858691  0.12780010     0.10400
C1076       C  0.42793503  0.58747245  0.13881326    -0.16300
C1077       C  0.36727192  0.84185290  0.68399223    -0.15500
C1078       C  0.37514939  0.86296155  0.68351001     0.08600
C1079       C  0.38535905  0.88742308  0.68234849     0.10400
C1080       C  0.39406167  0.90828687  0.68108699    -0.16300
C1081       C  0.27904377  0.76059863  0.54996551    -0.15500
C1082       C  0.26315156  0.75706866  0.52126931     0.08600
C1083       C  0.24584161  0.75119179  0.48706024     0.10400
C1084       C  0.23164692  0.74716413  0.45677433    -0.16300
C1085       C  0.44075048  0.74879754  0.59228584    -0.15500
C1086       C  0.46160694  0.74811499  0.56981843     0.08600
C1087       C  0.48517135  0.74716818  0.54188185     0.10400
C1088       C  0.50523728  0.74660363  0.51797723    -0.16300
C1089       C  0.19055067  0.75407647  0.84093450    -0.15500
C1090       C  0.21077282  0.75524158  0.81737737     0.08600
C1091       C  0.23359699  0.75584561  0.78820258     0.10400
C1092       C  0.25314556  0.75552532  0.76343666    -0.16300
C1093       C  0.38287878  0.73264177  0.81594611    -0.15500
C1094       C  0.38391383  0.73092838  0.85296872     0.08600
C1095       C  0.38267298  0.73071726  0.89644326     0.10400
C1096       C  0.38332014  0.73261676  0.93345812    -0.16300
C1097       C  0.39552340  0.34097976  0.57627151    -0.15500
C1098       C  0.38694374  0.36190198  0.57544354     0.08600
C1099       C  0.37674912  0.38639251  0.57450269     0.10400
C1100       C  0.36887557  0.40751283  0.57373697    -0.16300
C1101       C  0.23541025  0.50437329  0.79805453    -0.15500
C1102       C  0.25114088  0.50084874  0.76911375     0.08600
C1103       C  0.26887698  0.49535321  0.73508267     0.10400
C1104       C  0.28422707  0.49188807  0.70570634    -0.16300
C1105       C  0.44342221  0.50394562  0.65827341    -0.15500
C1106       C  0.46409343  0.50457398  0.68112767     0.08600
C1107       C  0.48738231  0.50491966  0.70963160     0.10400
C1108       C  0.50724304  0.50456837  0.73392793    -0.16300
C1109       C  0.19110857  0.49523103  0.41288769    -0.15500
C1110       C  0.21135595  0.49402118  0.43647561     0.08600
C1111       C  0.23414868  0.49291794  0.46578535     0.10400
C1112       C  0.25381821  0.49290338  0.49043640    -0.16300
C1113       C  0.38356723  0.50837897  0.31492101    -0.15500
C1114       C  0.38299726  0.50925639  0.35205745     0.08600
C1115       C  0.38468641  0.50973562  0.39550108     0.10400
C1116       C  0.38416419  0.50965369  0.43266715    -0.16300
C1117       C  0.33644740  0.65904718  0.63705712    -0.15500
C1118       C  0.33611668  0.63792581  0.62635471     0.08600
C1119       C  0.33664076  0.61326985  0.61350259     0.10400
C1120       C  0.33777602  0.59198195  0.60390969    -0.16300
loop_ 
_geom_bond_atom_site_label_1 
_geom_bond_atom_site_label_2 
_geom_bond_distance 
_geom_bond_site_symmetry_2 
_ccdc_geom_bond_type 
Zn1           O5   1.952       .  S
Zn1           O6   1.984       .  S
Zn1          O10   2.019       .  S
Zn1          O17   2.011       .  S
Zn2           O5   1.958       .  S
Zn2           O7   2.051       .  S
Zn2           O9   2.034       .  S
Zn2          O13   2.018       .  S
Zn3           O5   1.941       .  S
Zn3           O8   2.001       .  S
Zn3          O11   2.008       .  S
Zn3          O14   1.984       .  S
Zn4           O5   1.964       .  S
Zn4          O12   2.030       .  S
Zn4          O15   2.040       .  S
Zn4          O16   2.050       .  S
O6           C18   1.269       .  A
O7           C19   1.276       .  A
O8           C20   1.269       .  A
O9           C18   1.275       .  A
O10          C20   1.272       .  A
O11          C19   1.271       .  A
O12          C21   1.275       .  A
O13          C22   1.273       .  A
O14          C21   1.269       .  A
O15          C22   1.276       .  A
O16          C23   1.276       .  A
O17          C23   1.271       .  A
C18        C1116   1.430       .  S
C19        C1105   1.442       .  S
C20        C1120   1.432       .  S
C21        C1104   1.428       .  S
C22        C1100   1.441       .  S
C23        C1112   1.443       .  S
Zn24         O28   1.953       .  S
Zn24         O29   2.022       .  S
Zn24         O33   2.048       .  S
Zn24         O40   2.035       .  S
Zn25         O28   1.957       .  S
Zn25         O30   2.023       .  S
Zn25         O32   2.034       .  S
Zn25         O36   2.036       .  S
Zn26         O28   1.938       .  S
Zn26         O31   2.006       .  S
Zn26         O34   1.984       .  S
Zn26         O37   2.001       .  S
Zn27         O28   1.949       .  S
Zn27         O35   2.019       .  S
Zn27         O38   2.015       .  S
Zn27         O39   1.984       .  S
O29          C41   1.273       .  A
O30          C42   1.273       .  A
O31          C43   1.271       .  A
O32          C41   1.275       .  A
O33          C43   1.276       .  A
O34          C42   1.269       .  A
O35          C44   1.272       .  A
O36          C45   1.274       .  A
O37          C44   1.269       .  A
O38          C45   1.272       .  A
O39          C46   1.269       .  A
O40          C46   1.276       .  A
C41        C1077   1.440       .  S
C42        C1081   1.426       .  S
C43        C1085   1.441       .  S
C44        C1117   1.432       .  S
C45        C1092   1.440       .  S
C46        C1093   1.430       .  S
Zn47         O51   1.953       .  S
Zn47         O52   2.018       .  S
Zn47         O56   1.985       .  S
Zn47         O63   2.029       .  S
Zn48         O51   1.961       .  S
Zn48         O53   2.041       .  S
Zn48         O55   2.041       .  S
Zn48         O59   2.027       .  S
Zn49         O51   1.958       .  S
Zn49         O54   2.035       .  S
Zn49         O57   2.023       .  S
Zn49         O60   2.054       .  S
Zn50         O51   1.940       .  S
Zn50         O58   2.009       .  S
Zn50         O61   1.989       .  S
Zn50         O62   2.005       .  S
O52          C64   1.272       .  A
O53          C65   1.276       .  A
O54          C66   1.276       .  A
O55          C64   1.275       .  A
O56          C66   1.269       .  A
O57          C65   1.273       .  A
O58          C67   1.271       .  A
O59          C68   1.274       .  A
O60          C67   1.277       .  A
O61          C68   1.270       .  A
O62          C69   1.269       .  A
O63          C69   1.273       .  A
C64        C1072   1.442       .  S
C65        C1057   1.442       .  S
C66        C1113   1.430       .  S
C67        C1065   1.443       .  S
C68        C1061   1.429       .  S
C69        C1076   1.436       .  S
Zn70         O74   1.951       .  S
Zn70         O75   2.030       .  S
Zn70         O79   2.014       .  S
Zn70         O86   1.993       .  S
Zn71         O74   1.946       .  S
Zn71         O76   1.983   1_554  S
Zn71         O78   2.023       .  S
Zn71         O82   2.020       .  S
Zn72         O74   1.962       .  S
Zn72         O77   2.022       .  S
Zn72         O80   2.036       .  S
Zn72         O83   2.047       .  S
Zn73         O74   1.948       .  S
Zn73         O81   2.018       .  S
Zn73         O84   2.024       .  S
Zn73         O85   2.014       .  S
O75          C87   1.273       .  A
O76          C88   1.269       .  A
O77          C89   1.272       .  A
O78          C87   1.272       .  A
O79          C89   1.271       .  A
O80          C88   1.276   1_554  A
O81          C90   1.272       .  A
O82          C91   1.273       .  A
O83          C90   1.276       .  A
O84          C91   1.273       .  A
O85          C92   1.273       .  A
O86          C92   1.270       .  A
C87        C1049   1.441   1_554  S
C88        C1096   1.430       .  S
C89        C1073   1.436       .  S
C90        C1056   1.444       .  S
C91        C1041   1.437       .  S
C92        C1048   1.426       .  S
Zn93         O97   1.957       .  S
Zn93         O98   2.058       .  S
Zn93        O102   2.022       .  S
Zn93        O109   2.041       .  S
Zn94         O97   1.938       .  S
Zn94         O99   1.983       .  S
Zn94        O101   2.005       .  S
Zn94        O105   1.998       .  S
Zn95         O97   1.961       .  S
Zn95        O100   2.040       .  S
Zn95        O103   2.029       .  S
Zn95        O106   2.045       .  S
Zn96         O97   1.950       .  S
Zn96        O104   2.013       .  S
Zn96        O107   2.023       .  S
Zn96        O108   1.985       .  S
O98         C110   1.278       .  A
O99         C111   1.269       .  A
O100        C112   1.276       .  A
O101        C110   1.271       .  A
O102        C112   1.273       .  A
O103        C111   1.274       .  A
O104        C113   1.271       .  A
O105        C114   1.269       .  A
O106        C113   1.275       .  A
O107        C114   1.272       .  A
O108        C115   1.269       .  A
O109        C115   1.277       .  A
C110       C1109   1.443       .  S
C111       C1028   1.428       .  S
C112       C1021   1.441       .  S
C113       C1032   1.442       .  S
C114       C1040   1.432       .  S
C115       C1033   1.432       .  S
Zn116       O120   1.961       .  S
Zn116       O121   2.030       .  S
Zn116       O125   2.044       .  S
Zn116       O132   2.037       .  S
Zn117       O120   1.939       .  S
Zn117       O122   1.997       .  S
Zn117       O124   1.985       .  S
Zn117       O128   2.006       .  S
Zn118       O120   1.953       .  S
Zn118       O123   2.017       .  S
Zn118       O126   2.026       .  S
Zn118       O129   1.990       .  S
Zn119       O120   1.957       .  S
Zn119       O127   2.040       .  S
Zn119       O130   2.055       .  S
Zn119       O131   2.022       .  S
O121        C133   1.274       .  A
O122        C134   1.269       .  A
O123        C135   1.272       .  A
O124        C133   1.269       .  A
O125        C135   1.275       .  A
O126        C134   1.273       .  A
O127        C136   1.276       .  A
O128        C137   1.271       .  A
O129        C136   1.270       .  A
O130        C137   1.277       .  A
O131        C138   1.273       .  A
O132        C138   1.276       .  A
C133       C1008   1.429       .  S
C134       C1037   1.432       .  S
C135       C1012   1.443       .  S
C136       C1017   1.433       .  S
C137       C1016   1.443       .  S
C138       C1004   1.441       .  S
Zn139       O143   1.957       .  S
Zn139       O144   2.019       .  S
Zn139       O148   2.036   1_556  S
Zn139       O155   2.057       .  S
Zn140       O143   1.963       .  S
Zn140       O145   2.046       .  S
Zn140       O147   2.042       .  S
Zn140       O151   2.029       .  S
Zn141       O143   1.953       .  S
Zn141       O146   1.990   1_556  S
Zn141       O149   2.017       .  S
Zn141       O152   2.029       .  S
Zn142       O143   1.939       .  S
Zn142       O150   1.999       .  S
Zn142       O153   1.984       .  S
Zn142       O154   2.006       .  S
O144        C156   1.273       .  A
O145        C157   1.276       .  A
O146        C158   1.270       .  A
O147        C156   1.276       .  A
O148        C158   1.276       .  A
O149        C157   1.272       .  A
O150        C159   1.269       .  A
O151        C160   1.274       .  A
O152        C159   1.273       .  A
O153        C160   1.269       .  A
O154        C161   1.271       .  A
O155        C161   1.278       .  A
C156        C989   1.441       .  S
C157       C1068   1.443   1_556  S
C158       C1036   1.432       .  S
C159       C1000   1.434       .  S
C160       C1101   1.428       .  S
C161        C996   1.443       .  S
Zn162       O166   1.948       .  S
Zn162       O167   1.990       .  S
Zn162       O171   2.023       .  S
Zn162       O178   2.028       .  S
Zn163       O166   1.965       .  S
Zn163       O168   2.048       .  S
Zn163       O170   2.039       .  S
Zn163       O174   2.019       .  S
Zn164       O166   1.953       .  S
Zn164       O169   2.032       .  S
Zn164       O172   2.020       .  S
Zn164       O175   2.023       .  S
Zn165       O166   1.952       .  S
Zn165       O173   1.992       .  S
Zn165       O176   2.010       .  S
Zn165       O177   2.029       .  S
O167        C179   1.270       .  A
O168        C180   1.277       .  A
O169        C181   1.274       .  A
O170        C179   1.276       .  A
O171        C181   1.274       .  A
O172        C180   1.272       .  A
O173        C182   1.270       .  A
O174        C183   1.272       .  A
O175        C182   1.274       .  A
O176        C183   1.270       .  A
O177        C184   1.273       .  A
O178        C184   1.273       .  A
C179       C1020   1.433       .  S
C180        C981   1.445       .  S
C181        C973   1.440       .  S
C182        C977   1.428       .  S
C183        C997   1.434       .  S
C184        C985   1.442       .  S
Zn185       O189   1.954       .  S
Zn185       O190   2.026       .  S
Zn185       O194   2.051       .  S
Zn185       O201   2.037       .  S
Zn186       O189   1.956       .  S
Zn186       O191   2.025       .  S
Zn186       O193   2.037       .  S
Zn186       O197   2.043       .  S
Zn187       O189   1.937       .  S
Zn187       O192   2.009       .  S
Zn187       O195   1.987       .  S
Zn187       O198   2.003       .  S
Zn188       O189   1.949       .  S
Zn188       O196   2.022       .  S
Zn188       O199   2.018       .  S
Zn188       O200   1.985       .  S
O190        C202   1.274       .  A
O191        C203   1.274       .  A
O192        C204   1.272       .  A
O193        C202   1.276       .  A
O194        C204   1.277       .  A
O195        C203   1.270       .  A
O196        C205   1.272       .  A
O197        C206   1.275       .  A
O198        C205   1.269       .  A
O199        C206   1.272       .  A
O200        C207   1.269       .  A
O201        C207   1.276       .  A
C202       C1060   1.442       .  S
C203        C980   1.428       .  S
C204        C961   1.442       .  S
C205        C969   1.433       .  S
C206       C1013   1.443       .  S
C207        C965   1.430       .  S
Zn208       O212   1.946       .  S
Zn208       O213   2.026       .  S
Zn208       O217   2.020       .  S
Zn208       O224   2.023       .  S
Zn209       O212   1.943       .  S
Zn209       O214   2.026       .  S
Zn209       O216   2.021       .  S
Zn209       O220   1.989   1_554  S
Zn210       O212   1.949   1_545  S
Zn210       O215   1.990       .  S
Zn210       O218   2.027       .  S
Zn210       O221   2.013       .  S
Zn211       O212   1.955   1_545  S
Zn211       O219   2.011       .  S
Zn211       O222   2.024       .  S
Zn211       O223   2.038       .  S
O213        C225   1.274       .  A
O214        C226   1.273       .  A
O215        C227   1.270   1_545  A
O216        C225   1.273       .  A
O217        C227   1.274       .  A
O218        C226   1.273   1_545  A
O219        C228   1.271       .  A
O220        C229   1.270   1_565  A
O221        C228   1.271       .  A
O222        C229   1.274   1_554  A
O223        C230   1.275       .  A
O224        C230   1.273   1_565  A
C225       C1044   1.438       .  S
C226        C956   1.441   1_554  S
C227        C945   1.426       .  S
C228        C972   1.433       .  S
C229        C960   1.428       .  S
C230        C949   1.443       .  S
Zn231       O235   1.960       .  S
Zn231       O236   2.019       .  S
Zn231       O240   2.033       .  S
Zn231       O247   2.039       .  S
Zn232       O235   1.950       .  S
Zn232       O237   2.026       .  S
Zn232       O239   2.013       .  S
Zn232       O243   1.991       .  S
Zn233       O235   1.946       .  S
Zn233       O238   1.987       .  S
Zn233       O241   2.028       .  S
Zn233       O244   2.027       .  S
Zn234       O235   1.949       .  S
Zn234       O242   2.032       .  S
Zn234       O245   2.023       .  S
Zn234       O246   2.021       .  S
O236        C248   1.271       .  A
O237        C249   1.273       .  A
O238        C250   1.270       .  A
O239        C248   1.271       .  A
O240        C250   1.275       .  A
O241        C249   1.273       .  A
O242        C251   1.274       .  A
O243        C252   1.270       .  A
O244        C251   1.274       .  A
O245        C252   1.274       .  A
O246        C253   1.273       .  A
O247        C253   1.276       .  A
C248        C944   1.436       .  S
C249        C940   1.441       .  S
C250        C968   1.430       .  S
C251       C1097   1.441       .  S
C252        C936   1.428       .  S
C253        C988   1.442       .  S
Zn254       O258   1.945       .  S
Zn254       O259   2.023       .  S
Zn254       O263   1.982       .  S
Zn254       O270   2.026       .  S
Zn255       O258   1.950       .  S
Zn255       O260   2.021       .  S
Zn255       O262   2.030       .  S
Zn255       O266   2.019       .  S
Zn256       O258   1.962   1_545  S
Zn256       O261   2.030       .  S
Zn256       O264   2.040       .  S
Zn256       O267   2.016       .  S
Zn257       O258   1.953   1_545  S
Zn257       O265   2.019       .  S
Zn257       O268   1.994       .  S
Zn257       O269   2.032       .  S
O259        C271   1.273       .  A
O260        C272   1.273   1_565  A
O261        C273   1.275       .  A
O262        C271   1.274       .  A
O263        C273   1.269   1_565  A
O264        C272   1.276       .  A
O265        C274   1.272       .  A
O266        C275   1.274       .  A
O267        C274   1.271       .  A
O268        C275   1.270   1_545  A
O269        C276   1.274   1_545  A
O270        C276   1.273       .  A
C271       C1080   1.440       .  S
C272        C929   1.443       .  S
C273        C957   1.428       .  S
C274        C941   1.436       .  S
C275        C921   1.427       .  S
C276        C928   1.442       .  S
Zn277       O281   1.950   1_545  S
Zn277       O282   2.021       .  S
Zn277       O286   2.033       .  S
Zn277       O293   2.023       .  S
Zn278       O281   1.952       .  S
Zn278       O283   2.031       .  S
Zn278       O285   1.993       .  S
Zn278       O289   2.016       .  S
Zn279       O281   1.945   1_545  S
Zn279       O284   2.028       .  S
Zn279       O287   2.029       .  S
Zn279       O290   1.989       .  S
Zn280       O281   1.960       .  S
Zn280       O288   2.032       .  S
Zn280       O291   2.015       .  S
Zn280       O292   2.040       .  S
O282        C294   1.274       .  A
O283        C295   1.274   1_565  A
O284        C296   1.274       .  A
O285        C294   1.270   1_565  A
O286        C296   1.274       .  A
O287        C295   1.273       .  A
O288        C297   1.275       .  A
O289        C298   1.271       .  A
O290        C297   1.270   1_545  A
O291        C298   1.271       .  A
O292        C299   1.276       .  A
O293        C299   1.273   1_545  A
C294        C924   1.427       .  S
C295        C952   1.443       .  S
C296        C905   1.442       .  S
C297        C913   1.431       .  S
C298        C917   1.435       .  S
C299        C912   1.443       .  S
Zn300       O304   1.961       .  S
Zn300       O305   2.031       .  S
Zn300       O309   2.020       .  S
Zn300       O316   2.042       .  S
Zn301       O304   1.945       .  S
Zn301       O306   2.026       .  S
Zn301       O308   1.983       .  S
Zn301       O312   2.025       .  S
Zn302       O304   1.949       .  S
Zn302       O307   2.011       .  S
Zn302       O310   2.026       .  S
Zn302       O313   1.992       .  S
Zn303       O304   1.946       .  S
Zn303       O311   2.015       .  S
Zn303       O314   2.022       .  S
Zn303       O315   2.019       .  S
O305        C317   1.275       .  A
O306        C318   1.273       .  A
O307        C319   1.271       .  A
O308        C317   1.269       .  A
O309        C319   1.272       .  A
O310        C318   1.273       .  A
O311        C320   1.273       .  A
O312        C321   1.273       .  A
O313        C320   1.270       .  A
O314        C321   1.273       .  A
O315        C322   1.273       .  A
O316        C322   1.276       .  A
C317        C901   1.429       .  S
C318       C1088   1.441       .  S
C319        C920   1.435       .  S
C320       C1045   1.426       .  S
C321        C893   1.438       .  S
C322        C900   1.442       .  S
Zn323       O327   1.951       .  S
Zn323       O328   1.991       .  S
Zn323       O332   2.013       .  S
Zn323       O339   2.029       .  S
Zn324       O327   1.950   1_545  S
Zn324       O329   2.018       .  S
Zn324       O331   2.020       .  S
Zn324       O335   2.029       .  S
Zn325       O327   1.962       .  S
Zn325       O330   2.020       .  S
Zn325       O333   2.042       .  S
Zn325       O336   2.034       .  S
Zn326       O327   1.946   1_545  S
Zn326       O334   1.989   1_556  S
Zn326       O337   2.028       .  S
Zn326       O338   2.027       .  S
O328        C340   1.270   1_565  A
O329        C341   1.272   1_545  A
O330        C342   1.272       .  A
O331        C340   1.274       .  A
O332        C342   1.271       .  A
O333        C341   1.276       .  A
O334        C343   1.270   1_545  A
O335        C344   1.274       .  A
O336        C343   1.275   1_556  A
O337        C344   1.274       .  A
O338        C345   1.273       .  A
O339        C345   1.273   1_565  A
C340        C881   1.427   1_545  S
C341        C925   1.442       .  S
C342        C892   1.436       .  S
C343        C916   1.431       .  S
C344        C877   1.441       .  S
C345        C885   1.442   1_556  S
Zn346       O350   1.950       .  S
Zn346       O351   1.991       .  S
Zn346       O355   2.016       .  S
Zn346       O362   2.027       .  S
Zn347       O350   1.947       .  S
Zn347       O352   2.018       .  S
Zn347       O354   2.015       .  S
Zn347       O358   2.026       .  S
Zn348       O350   1.960       .  S
Zn348       O353   2.017       .  S
Zn348       O356   2.039       .  S
Zn348       O359   2.027       .  S
Zn349       O350   1.947       .  S
Zn349       O357   1.988       .  S
Zn349       O360   2.032       .  S
Zn349       O361   2.031       .  S
O351        C363   1.270       .  A
O352        C364   1.273       .  A
O353        C365   1.271       .  A
O354        C363   1.273       .  A
O355        C365   1.271       .  A
O356        C364   1.276       .  A
O357        C366   1.270       .  A
O358        C367   1.273       .  A
O359        C366   1.274       .  A
O360        C367   1.274       .  A
O361        C368   1.273       .  A
O362        C368   1.273       .  A
C363        C869   1.425       .  S
C364       C1052   1.441       .  S
C365        C889   1.436       .  S
C366        C904   1.429       .  S
C367        C865   1.441       .  S
C368        C873   1.442       .  S
Zn369       O373   1.950       .  S
Zn369       O374   2.029       .  S
Zn369       O378   2.016       .  S
Zn369       O385   2.018       .  S
Zn370       O373   1.944       .  S
Zn370       O375   2.025       .  S
Zn370       O377   2.020       .  S
Zn370       O381   1.981       .  S
Zn371       O373   1.951       .  S
Zn371       O376   1.992       .  S
Zn371       O379   2.032       .  S
Zn371       O382   2.013       .  S
Zn372       O373   1.963       .  S
Zn372       O380   2.022       .  S
Zn372       O383   2.037       .  S
Zn372       O384   2.043       .  S
O374        C386   1.273       .  A
O375        C387   1.273       .  A
O376        C388   1.270       .  A
O377        C386   1.273       .  A
O378        C388   1.273       .  A
O379        C387   1.274       .  A
O380        C389   1.272       .  A
O381        C390   1.269       .  A
O382        C389   1.271       .  A
O383        C390   1.276       .  A
O384        C391   1.276       .  A
O385        C391   1.272       .  A
C386        C849   1.439       .  S
C387        C897   1.442       .  S
C388        C872   1.426       .  S
C389        C861   1.436       .  S
C390        C857   1.430       .  S
C391        C853   1.442       .  S
Zn392       O396   1.952       .  S
Zn392       O397   2.017       .  S
Zn392       O401   1.990       .  S
Zn392       O408   2.033       .  S
Zn393       O396   1.961       .  S
Zn393       O398   2.038       .  S
Zn393       O400   2.016       .  S
Zn393       O404   2.031       .  S
Zn394       O396   1.951       .  S
Zn394       O399   2.026       .  S
Zn394       O402   2.024       .  S
Zn394       O405   2.038       .  S
Zn395       O396   1.945       .  S
Zn395       O403   2.023       .  S
Zn395       O406   1.986   1_554  S
Zn395       O407   2.027       .  S
O397        C409   1.271       .  A
O398        C410   1.276       .  A
O399        C411   1.275       .  A
O400        C409   1.271       .  A
O401        C411   1.270       .  A
O402        C410   1.273       .  A
O403        C412   1.273       .  A
O404        C413   1.275   1_554  A
O405        C412   1.275       .  A
O406        C413   1.269       .  A
O407        C414   1.273       .  A
O408        C414   1.274       .  A
C409        C864   1.436       .  S
C410       C1029   1.442       .  S
C411        C837   1.428       .  S
C412        C833   1.442       .  S
C413        C845   1.429       .  S
C414        C844   1.443   1_554  S
Zn415       O419   1.961       .  S
Zn415       O420   2.036       .  S
Zn415       O424   2.047       .  S
Zn415       O431   2.028       .  S
Zn416       O419   1.957       .  S
Zn416       O421   2.035       .  S
Zn416       O423   2.023       .  S
Zn416       O427   2.051       .  S
Zn417       O419   1.951       .  S
Zn417       O422   2.013       .  S
Zn417       O425   1.984       .  S
Zn417       O428   2.018       .  S
Zn418       O419   1.940       .  S
Zn418       O426   2.000       .  S
Zn418       O429   2.003       .  S
Zn418       O430   1.984       .  S
O420        C432   1.275       .  A
O421        C433   1.276       .  A
O422        C434   1.271       .  A
O423        C432   1.273       .  A
O424        C434   1.275       .  A
O425        C433   1.269       .  A
O426        C435   1.269       .  A
O427        C436   1.276       .  A
O428        C435   1.271       .  A
O429        C436   1.270       .  A
O430        C437   1.269       .  A
O431        C437   1.274       .  A
C432        C824   1.441       .  S
C433        C848   1.430       .  S
C434        C993   1.443   1_655  S
C435        C832   1.431       .  S
C436        C825   1.441       .  S
C437       C1025   1.428       .  S
Zn438       O442   1.937       .  S
Zn438       O443   1.998       .  S
Zn438       O447   2.006       .  S
Zn438       O454   1.985       .  S
Zn439       O442   1.949       .  S
Zn439       O444   1.980       .  S
Zn439       O446   2.019       .  S
Zn439       O450   2.014       .  S
Zn440       O442   1.956       .  S
Zn440       O445   2.054       .  S
Zn440       O448   2.040       .  S
Zn440       O451   2.026       .  S
Zn441       O442   1.958       .  S
Zn441       O449   2.036       .  S
Zn441       O452   2.044       .  S
Zn441       O453   2.029       .  S
O443        C455   1.269       .  A
O444        C456   1.268       .  A
O445        C457   1.277       .  A
O446        C455   1.272       .  A
O447        C457   1.271       .  A
O448        C456   1.276       .  A
O449        C458   1.276       .  A
O450        C459   1.271       .  A
O451        C458   1.274       .  A
O452        C459   1.275       .  A
O453        C460   1.274       .  A
O454        C460   1.269       .  A
C455        C829   1.431       .  S
C456        C860   1.430       .  S
C457        C876   1.442       .  S
C458        C809   1.441       .  S
C459        C820   1.442   1_655  S
C460        C813   1.428       .  S
Zn461       O465   1.947       .  S
Zn461       O466   2.023       .  S
Zn461       O470   2.026       .  S
Zn461       O477   2.030       .  S
Zn462       O465   1.958       .  S
Zn462       O467   2.012       .  S
Zn462       O469   2.040       .  S
Zn462       O473   2.032       .  S
Zn463       O465   1.948       .  S
Zn463       O468   1.990       .  S
Zn463       O471   2.011       .  S
Zn463       O474   2.026       .  S
Zn464       O465   1.942       .  S
Zn464       O472   2.025       .  S
Zn464       O475   1.986       .  S
Zn464       O476   2.020       .  S
O466        C478   1.273       .  A
O467        C479   1.271       .  A
O468        C480   1.270       .  A
O469        C478   1.276       .  A
O470        C480   1.274       .  A
O471        C479   1.270       .  A
O472        C481   1.273       .  A
O473        C482   1.275       .  A
O474        C481   1.273       .  A
O475        C482   1.270       .  A
O476        C483   1.273       .  A
O477        C483   1.274       .  A
C478       C1069   1.442       .  S
C479        C808   1.433       .  S
C480        C840   1.428       .  S
C481        C828   1.441       .  S
C482        C804   1.430       .  S
C483        C896   1.438       .  S
Zn484       O488   1.956       .  S
Zn484       O489   2.050       .  S
Zn484       O493   2.026       .  S
Zn484       O500   2.037       .  S
Zn485       O488   1.937       .  S
Zn485       O490   1.989       .  S
Zn485       O492   2.007       .  S
Zn485       O496   2.001       .  S
Zn486       O488   1.957       .  S
Zn486       O491   2.039       .  S
Zn486       O494   2.028       .  S
Zn486       O497   2.044       .  S
Zn487       O488   1.949       .  S
Zn487       O495   2.016       .  S
Zn487       O498   2.022       .  S
Zn487       O499   1.979       .  S
O489        C501   1.277       .  A
O490        C502   1.270       .  A
O491        C503   1.276       .  A
O492        C501   1.271       .  A
O493        C503   1.274       .  A
O494        C502   1.274       .  A
O495        C504   1.272       .  A
O496        C505   1.269       .  A
O497        C504   1.275       .  A
O498        C505   1.272       .  A
O499        C506   1.268       .  A
O500        C506   1.276       .  A
C501        C937   1.441       .  S
C502        C789   1.429       .  S
C503        C908   1.442       .  S
C504        C793   1.443       .  S
C505        C805   1.433       .  S
C506        C797   1.429       .  S
Zn507       O511   1.946       .  S
Zn507       O512   2.028       .  S
Zn507       O516   1.987       .  S
Zn507       O523   2.025       .  S
Zn508       O511   1.953       .  S
Zn508       O513   2.012       .  S
Zn508       O515   2.030       .  S
Zn508       O519   1.994       .  S
Zn509       O511   1.962       .  S
Zn509       O514   2.033       .  S
Zn509       O517   2.015       .  S
Zn509       O520   2.043       .  S
Zn510       O511   1.951       .  S
Zn510       O518   2.021       .  S
Zn510       O521   2.023       .  S
Zn510       O522   2.034       .  S
O512        C524   1.273       .  A
O513        C525   1.271       .  A
O514        C526   1.275       .  A
O515        C524   1.273       .  A
O516        C526   1.270       .  A
O517        C525   1.271       .  A
O518        C527   1.273       .  A
O519        C528   1.270       .  A
O520        C527   1.276       .  A
O521        C528   1.274       .  A
O522        C529   1.275       .  A
O523        C529   1.274       .  A
C524       C1108   1.443       .  S
C525        C785   1.434       .  S
C526        C801   1.431       .  S
C527        C841   1.443       .  S
C528       C1064   1.429       .  S
C529        C868   1.441       .  S
Zn530       O534   1.945       .  S
Zn530       O535   1.983   1_556  S
Zn530       O539   2.025       .  S
Zn530       O546   2.028       .  S
Zn531       O534   1.960       .  S
Zn531       O536   2.043       .  S
Zn531       O538   2.032       .  S
Zn531       O542   2.016       .  S
Zn532       O534   1.948       .  S
Zn532       O537   2.032       .  S
Zn532       O540   2.024       .  S
Zn532       O543   2.023       .  S
Zn533       O534   1.951       .  S
Zn533       O541   1.991       .  S
Zn533       O544   2.012       .  S
Zn533       O545   2.028       .  S
O535        C547   1.269       .  A
O536        C548   1.276       .  A
O537        C549   1.274       .  A
O538        C547   1.275   1_556  A
O539        C549   1.274       .  A
O540        C548   1.273       .  A
O541        C550   1.270       .  A
O542        C551   1.271       .  A
O543        C550   1.274       .  A
O544        C551   1.271       .  A
O545        C552   1.273       .  A
O546        C552   1.273       .  A
C547        C800   1.429       .  S
C548        C781   1.444       .  S
C549        C880   1.441       .  S
C550        C933   1.428       .  S
C551        C788   1.434       .  S
C552        C964   1.442   1_556  S
Zn553       O557   1.946   1_545  S
Zn553       O558   2.029       .  S
Zn553       O562   1.989       .  S
Zn553       O569   2.029       .  S
Zn554       O557   1.950       .  S
Zn554       O559   2.014       .  S
Zn554       O561   2.029       .  S
Zn554       O565   1.992       .  S
Zn555       O557   1.958       .  S
Zn555       O560   2.025       .  S
Zn555       O563   2.015       .  S
Zn555       O566   2.037       .  S
Zn556       O557   1.947   1_545  S
Zn556       O564   2.019       .  S
Zn556       O567   2.017       .  S
Zn556       O568   2.026       .  S
O558        C570   1.273       .  A
O559        C571   1.271       .  A
O560        C572   1.274       .  A
O561        C570   1.273   1_565  A
O562        C572   1.270   1_545  A
O563        C571   1.271       .  A
O564        C573   1.272   1_545  A
O565        C574   1.270       .  A
O566        C573   1.275       .  A
O567        C574   1.273   1_545  A
O568        C575   1.273       .  A
O569        C575   1.274       .  A
C570        C772   1.443       .  S
C571        C777   1.434       .  S
C572        C773   1.428       .  S
C573        C953   1.441       .  S
C574        C768   1.426       .  S
C575        C976   1.440       .  S
Zn576       O580   1.949       .  S
Zn576       O581   2.017       .  S
Zn576       O585   2.024       .  S
Zn576       O592   2.033       .  S
Zn577       O580   1.960       .  S
Zn577       O582   2.014       .  S
Zn577       O584   2.037       .  S
Zn577       O588   2.028       .  S
Zn578       O580   1.951       .  S
Zn578       O583   1.990       .  S
Zn578       O586   2.015       .  S
Zn578       O589   2.029       .  S
Zn579       O580   1.944       .  S
Zn579       O587   2.028       .  S
Zn579       O590   1.991   1_556  S
Zn579       O591   2.027       .  S
O581        C593   1.272       .  A
O582        C594   1.271       .  A
O583        C595   1.270       .  A
O584        C593   1.275       .  A
O585        C595   1.274       .  A
O586        C594   1.271       .  A
O587        C596   1.273       .  A
O588        C597   1.274   1_556  A
O589        C596   1.274       .  A
O590        C597   1.270       .  A
O591        C598   1.274       .  A
O592        C598   1.275       .  A
C593       C1089   1.440       .  S
C594        C780   1.434       .  S
C595        C816   1.428       .  S
C596        C856   1.442   1_556  S
C597        C761   1.430       .  S
C598        C992   1.442       .  S
Zn599       O603   1.946   1_545  S
Zn599       O604   2.028       .  S
Zn599       O608   2.030       .  S
Zn599       O615   1.991       .  S
Zn600       O603   1.950   1_545  S
Zn600       O605   2.019       .  S
Zn600       O607   2.030       .  S
Zn600       O611   2.022       .  S
Zn601       O603   1.951       .  S
Zn601       O606   2.029       .  S
Zn601       O609   1.990       .  S
Zn601       O612   2.016       .  S
Zn602       O603   1.959       .  S
Zn602       O610   2.014       .  S
Zn602       O613   2.035       .  S
Zn602       O614   2.024       .  S
O604        C616   1.274       .  A
O605        C617   1.274       .  A
O606        C618   1.273   1_565  A
O607        C616   1.274       .  A
O608        C618   1.273       .  A
O609        C617   1.270   1_565  A
O610        C619   1.271       .  A
O611        C620   1.273   1_545  A
O612        C619   1.271       .  A
O613        C620   1.275       .  A
O614        C621   1.274       .  A
O615        C621   1.270   1_545  A
C616       C1001   1.441       .  S
C617        C948   1.426       .  S
C618        C932   1.443       .  S
C619        C757   1.435       .  S
C620        C753   1.441       .  S
C621        C776   1.428       .  S
Zn622       O626   1.950       .  S
Zn622       O627   2.016       .  S
Zn622       O631   2.031       .  S
Zn622       O638   2.019       .  S
Zn623       O626   1.954       .  S
Zn623       O628   2.033       .  S
Zn623       O630   1.991       .  S
Zn623       O634   2.014       .  S
Zn624       O626   1.946       .  S
Zn624       O629   2.028       .  S
Zn624       O632   2.030       .  S
Zn624       O635   1.988       .  S
Zn625       O626   1.963       .  S
Zn625       O633   2.030       .  S
Zn625       O636   2.016       .  S
Zn625       O637   2.042       .  S
O627        C639   1.273       .  A
O628        C640   1.274       .  A
O629        C641   1.274       .  A
O630        C639   1.270       .  A
O631        C641   1.274       .  A
O632        C640   1.273       .  A
O633        C642   1.275       .  A
O634        C643   1.271       .  A
O635        C642   1.270       .  A
O636        C643   1.271       .  A
O637        C644   1.276       .  A
O638        C644   1.272       .  A
C639       C1084   1.426       .  S
C640       C1053   1.444       .  S
C641       C1024   1.441       .  S
C642        C764   1.430       .  S
C643        C760   1.435       .  S
C644        C817   1.443       .  S
Zn645       O649   1.948       .  S
Zn645       O650   2.025       .  S
Zn645       O654   1.989       .  S
Zn645       O661   2.030       .  S
Zn646       O649   1.953       .  S
Zn646       O651   2.021       .  S
Zn646       O653   2.033       .  S
Zn646       O657   2.025       .  S
Zn647       O649   1.965       .  S
Zn647       O652   2.032       .  S
Zn647       O655   2.045       .  S
Zn647       O658   2.015       .  S
Zn648       O649   1.952       .  S
Zn648       O656   2.008       .  S
Zn648       O659   1.993       .  S
Zn648       O660   2.030       .  S
O650        C662   1.274       .  A
O651        C663   1.272       .  A
O652        C664   1.275       .  A
O653        C662   1.275       .  A
O654        C664   1.270       .  A
O655        C663   1.276       .  A
O656        C665   1.270       .  A
O657        C666   1.274       .  A
O658        C665   1.271       .  A
O659        C666   1.270       .  A
O660        C667   1.273       .  A
O661        C667   1.273       .  A
C662        C821   1.441       .  S
C663       C1009   1.444       .  S
C664        C745   1.431       .  S
C665        C749   1.433       .  S
C666        C792   1.429       .  S
C667        C784   1.444       .  S
Zn668       O672   1.958   1_565  S
Zn668       O673   2.034       .  S
Zn668       O677   2.041       .  S
Zn668       O684   2.022       .  S
Zn669       O672   1.956   1_565  S
Zn669       O674   2.034       .  S
Zn669       O676   2.024       .  S
Zn669       O680   2.052       .  S
Zn670       O672   1.952       .  S
Zn670       O675   2.019       .  S
Zn670       O678   1.986       .  S
Zn670       O681   2.023       .  S
Zn671       O672   1.938       .  S
Zn671       O679   2.000       .  S
Zn671       O682   2.009       .  S
Zn671       O683   1.987       .  S
O673        C685   1.275       .  A
O674        C686   1.276   1_565  A
O675        C687   1.272   1_545  A
O676        C685   1.273       .  A
O677        C687   1.275       .  A
O678        C686   1.269       .  A
O679        C688   1.269       .  A
O680        C689   1.277   1_565  A
O681        C688   1.272       .  A
O682        C689   1.271       .  A
O683        C690   1.269   1_545  A
O684        C690   1.273       .  A
C685        C812   1.441       .  S
C686        C741   1.430       .  S
C687        C909   1.443       .  S
C688        C752   1.432       .  S
C689        C769   1.442       .  S
C690        C884   1.427       .  S
Zn691       O695   1.954       .  S
Zn691       O696   2.022       .  S
Zn691       O700   1.988   1_554  S
Zn691       O707   2.027       .  S
Zn692       O695   1.961       .  S
Zn692       O697   2.036       .  S
Zn692       O699   2.045       .  S
Zn692       O703   2.029       .  S
Zn693       O695   1.960       .  S
Zn693       O698   2.037   1_554  S
Zn693       O701   2.026       .  S
Zn693       O704   2.055       .  S
Zn694       O695   1.939       .  S
Zn694       O702   2.005       .  S
Zn694       O705   1.984       .  S
Zn694       O706   1.997       .  S
O696        C708   1.272       .  A
O697        C709   1.275       .  A
O698        C710   1.276       .  A
O699        C708   1.275       .  A
O700        C710   1.269       .  A
O701        C709   1.274       .  A
O702        C711   1.270       .  A
O703        C712   1.274       .  A
O704        C711   1.277       .  A
O705        C712   1.269       .  A
O706        C713   1.269       .  A
O707        C713   1.273       .  A
C708        C984   1.445   1_654  S
C709        C836   1.442       .  S
C710        C748   1.431       .  S
C711        C796   1.443       .  S
C712       C1005   1.428       .  S
C713        C737   1.433       .  S
Zn714       O718   1.949   1_545  S
Zn714       O719   2.008       .  S
Zn714       O723   1.989       .  S
Zn714       O730   2.023       .  S
Zn715       O718   1.959   1_545  S
Zn715       O720   2.039       .  S
Zn715       O722   2.016       .  S
Zn715       O726   2.028       .  S
Zn716       O718   1.947       .  S
Zn716       O721   2.018       .  S
Zn716       O724   2.021       .  S
Zn716       O727   2.024       .  S
Zn717       O718   1.946       .  S
Zn717       O725   2.027       .  S
Zn717       O728   1.990       .  S
Zn717       O729   2.030       .  S
O719        C731   1.270       .  A
O720        C732   1.276   1_545  A
O721        C733   1.273       .  A
O722        C731   1.271       .  A
O723        C733   1.270   1_545  A
O724        C732   1.273       .  A
O725        C734   1.274       .  A
O726        C735   1.275       .  A
O727        C734   1.273       .  A
O728        C735   1.270   1_565  A
O729        C736   1.273       .  A
O730        C736   1.273   1_545  A
C731        C740   1.433       .  S
C732        C888   1.442   1_565  S
C733        C765   1.426       .  S
C734        C852   1.439       .  S
C735        C744   1.430       .  S
C736        C756   1.441   1_655  S
C737        C738   1.204       .  T
C738        C739   1.410       .  S
C739        C740   1.204       .  T
C741        C742   1.203       .  T
C742        C743   1.408       .  S
C743        C744   1.203       .  T
C745        C746   1.204       .  T
C746        C747   1.409       .  S
C747        C748   1.204       .  T
C749        C750   1.204       .  T
C750        C751   1.410       .  S
C751        C752   1.204       .  T
C753        C754   1.209       .  T
C754        C755   1.418       .  S
C755        C756   1.209       .  T
C757        C758   1.206       .  T
C758        C759   1.412       .  S
C759        C760   1.206       .  T
C761        C762   1.203       .  T
C762        C763   1.408       .  S
C763        C764   1.203       .  T
C765        C766   1.201   1_655  T
C766        C767   1.404   1_554  S
C767        C768   1.201       .  T
C769        C770   1.210       .  T
C770        C771   1.419       .  S
C771        C772   1.210   1_655  T
C773        C774   1.202       .  T
C774        C775   1.407       .  S
C775        C776   1.202       .  T
C777        C778   1.205       .  T
C778        C779   1.412       .  S
C779        C780   1.205       .  T
C781        C782   1.211       .  T
C782        C783   1.420       .  S
C783        C784   1.211       .  T
C785        C786   1.205       .  T
C786        C787   1.411       .  S
C787        C788   1.205       .  T
C789        C790   1.202       .  T
C790        C791   1.407       .  S
C791        C792   1.202       .  T
C793        C794   1.210       .  T
C794        C795   1.420       .  S
C795        C796   1.210       .  T
C797        C798   1.203       .  T
C798        C799   1.408       .  S
C799        C800   1.203       .  T
C801        C802   1.204       .  T
C802        C803   1.410       .  S
C803        C804   1.204       .  T
C805        C806   1.204       .  T
C806        C807   1.410       .  S
C807        C808   1.204       .  T
C809        C810   1.209       .  T
C810        C811   1.418       .  S
C811        C812   1.209       .  T
C813        C814   1.202   1_655  T
C814        C815   1.407       .  S
C815        C816   1.202       .  T
C817        C818   1.210       .  T
C818        C819   1.419       .  S
C819        C820   1.210       .  T
C821        C822   1.209       .  T
C822        C823   1.417       .  S
C823        C824   1.209       .  T
C825        C826   1.209       .  T
C826        C827   1.418       .  S
C827        C828   1.209       .  T
C829        C830   1.203       .  T
C830        C831   1.408       .  S
C831        C832   1.203       .  T
C833        C834   1.209       .  T
C834        C835   1.418       .  S
C835        C836   1.209       .  T
C837        C838   1.202       .  T
C838        C839   1.406       .  S
C839        C840   1.202       .  T
C841        C842   1.210       .  T
C842        C843   1.420       .  S
C843        C844   1.210       .  T
C845        C846   1.203       .  T
C846        C847   1.408       .  S
C847        C848   1.203       .  T
C849        C850   1.208       .  T
C850        C851   1.416       .  S
C851        C852   1.208       .  T
C853        C854   1.210       .  T
C854        C855   1.419       .  S
C855        C856   1.210   1_655  T
C857        C858   1.203       .  T
C858        C859   1.409       .  S
C859        C860   1.203       .  T
C861        C862   1.206       .  T
C862        C863   1.413       .  S
C863        C864   1.206       .  T
C865        C866   1.209       .  T
C866        C867   1.418       .  S
C867        C868   1.209       .  T
C869        C870   1.200       .  T
C870        C871   1.403   1_556  S
C871        C872   1.200       .  T
C873        C874   1.210       .  T
C874        C875   1.419       .  S
C875        C876   1.210       .  T
C877        C878   1.209       .  T
C878        C879   1.417       .  S
C879        C880   1.209       .  T
C881        C882   1.201       .  T
C882        C883   1.405       .  S
C883        C884   1.201       .  T
C885        C886   1.210       .  T
C886        C887   1.419       .  S
C887        C888   1.210       .  T
C889        C890   1.206       .  T
C890        C891   1.413       .  S
C891        C892   1.206       .  T
C893        C894   1.208       .  T
C894        C895   1.415       .  S
C895        C896   1.208       .  T
C897        C898   1.210       .  T
C898        C899   1.419       .  S
C899        C900   1.210       .  T
C901        C902   1.203       .  T
C902        C903   1.408       .  S
C903        C904   1.203       .  T
C905        C906   1.210       .  T
C906        C907   1.419       .  S
C907        C908   1.210       .  T
C909        C910   1.210       .  T
C910        C911   1.420       .  S
C911        C912   1.210       .  T
C913        C914   1.204       .  T
C914        C915   1.409       .  S
C915        C916   1.204       .  T
C917        C918   1.205       .  T
C918        C919   1.412       .  S
C919        C920   1.205       .  T
C921        C922   1.201       .  T
C922        C923   1.405   1_565  S
C923        C924   1.201       .  T
C925        C926   1.210       .  T
C926        C927   1.419       .  S
C927        C928   1.210       .  T
C929        C930   1.210       .  T
C930        C931   1.419       .  S
C931        C932   1.210       .  T
C933        C934   1.202       .  T
C934        C935   1.406       .  S
C935        C936   1.202       .  T
C937        C938   1.209       .  T
C938        C939   1.418       .  S
C939        C940   1.209       .  T
C941        C942   1.206       .  T
C942        C943   1.413       .  S
C943        C944   1.206       .  T
C945        C946   1.201       .  T
C946        C947   1.404   1_565  S
C947        C948   1.201       .  T
C949        C950   1.210       .  T
C950        C951   1.419       .  S
C951        C952   1.210       .  T
C953        C954   1.209       .  T
C954        C955   1.418       .  S
C955        C956   1.209       .  T
C957        C958   1.202       .  T
C958        C959   1.407       .  S
C959        C960   1.203       .  T
C961        C962   1.210       .  T
C962        C963   1.419       .  S
C963        C964   1.210       .  T
C965        C966   1.204       .  T
C966        C967   1.409       .  S
C967        C968   1.204       .  T
C969        C970   1.204       .  T
C970        C971   1.410       .  S
C971        C972   1.204       .  T
C973        C974   1.209       .  T
C974        C975   1.417       .  S
C975        C976   1.209       .  T
C977        C978   1.202       .  T
C978        C979   1.406   1_556  S
C979        C980   1.202       .  T
C981        C982   1.211       .  T
C982        C983   1.421       .  S
C983        C984   1.211       .  T
C985        C986   1.210       .  T
C986        C987   1.419       .  S
C987        C988   1.210       .  T
C989        C990   1.209       .  T
C990        C991   1.418       .  S
C991        C992   1.209       .  T
C993        C994   1.211       .  T
C994        C995   1.420       .  S
C995        C996   1.211       .  T
C997        C998   1.205       .  T
C998        C999   1.411       .  S
C999       C1000   1.205       .  T
C1001      C1002   1.209       .  T
C1002      C1003   1.418       .  S
C1003      C1004   1.209       .  T
C1005      C1006   1.202       .  T
C1006      C1007   1.407   1_655  S
C1007      C1008   1.202       .  T
C1009      C1010   1.211       .  T
C1010      C1011   1.420       .  S
C1011      C1012   1.211   1_655  T
C1013      C1014   1.210       .  T
C1014      C1015   1.420       .  S
C1015      C1016   1.210       .  T
C1017      C1018   1.205       .  T
C1018      C1019   1.412       .  S
C1019      C1020   1.205       .  T
C1021      C1022   1.209       .  T
C1022      C1023   1.418       .  S
C1023      C1024   1.209       .  T
C1025      C1026   1.202       .  T
C1026      C1027   1.406   1_655  S
C1027      C1028   1.202       .  T
C1029      C1030   1.210       .  T
C1030      C1031   1.419       .  S
C1031      C1032   1.210   1_655  T
C1033      C1034   1.205       .  T
C1034      C1035   1.411       .  S
C1035      C1036   1.205       .  T
C1037      C1038   1.204       .  T
C1038      C1039   1.409       .  S
C1039      C1040   1.204       .  T
C1041      C1042   1.207       .  T
C1042      C1043   1.414       .  S
C1043      C1044   1.207       .  T
C1045      C1046   1.200       .  T
C1046      C1047   1.403       .  S
C1047      C1048   1.200       .  T
C1049      C1050   1.209       .  T
C1050      C1051   1.418       .  S
C1051      C1052   1.209       .  T
C1053      C1054   1.211       .  T
C1054      C1055   1.420       .  S
C1055      C1056   1.211       .  T
C1057      C1058   1.210       .  T
C1058      C1059   1.419       .  S
C1059      C1060   1.210       .  T
C1061      C1062   1.202       .  T
C1062      C1063   1.407   1_554  S
C1063      C1064   1.202       .  T
C1065      C1066   1.211       .  T
C1066      C1067   1.420       .  S
C1067      C1068   1.211       .  T
C1069      C1070   1.210       .  T
C1070      C1071   1.419       .  S
C1071      C1072   1.210       .  T
C1073      C1074   1.206       .  T
C1074      C1075   1.413       .  S
C1075      C1076   1.206       .  T
C1077      C1078   1.209       .  T
C1078      C1079   1.417       .  S
C1079      C1080   1.209       .  T
C1081      C1082   1.201       .  T
C1082      C1083   1.404       .  S
C1083      C1084   1.201       .  T
C1085      C1086   1.209       .  T
C1086      C1087   1.418       .  S
C1087      C1088   1.209       .  T
C1089      C1090   1.209       .  T
C1090      C1091   1.417       .  S
C1091      C1092   1.209       .  T
C1093      C1094   1.203       .  T
C1094      C1095   1.409       .  S
C1095      C1096   1.203       .  T
C1097      C1098   1.209       .  T
C1098      C1099   1.418       .  S
C1099      C1100   1.209       .  T
C1101      C1102   1.202       .  T
C1102      C1103   1.406       .  S
C1103      C1104   1.202       .  T
C1105      C1106   1.210       .  T
C1106      C1107   1.419       .  S
C1107      C1108   1.210       .  T
C1109      C1110   1.211       .  T
C1110      C1111   1.420       .  S
C1111      C1112   1.211       .  T
C1113      C1114   1.204       .  T
C1114      C1115   1.409       .  S
C1115      C1116   1.204       .  T
C1117      C1118   1.204       .  T
C1118      C1119   1.409       .  S
C1119      C1120   1.204       .  T
