geometry optimzed in LAMMPS
_audit_creation_date              2020-12-01 
_audit_creation_method            'lammps2cif' 
_symmetry_space_group_name_H-M    'P1' 
_symmetry_Int_Tables_number       1 
_symmetry_cell_setting            triclinic 
loop_ 
_symmetry_equiv_pos_as_xyz 
  x,y,z 
_cell_length_a                    45.57324751 
_cell_length_b                    29.97957311782671 
_cell_length_c                    56.81809521751585 
_cell_angle_alpha                 90.0870156081169 
_cell_angle_beta                  89.93245189487006 
_cell_angle_gamma                 90.13144074108928 
loop_ 
_atom_site_label 
_atom_site_type_symbol 
_atom_site_fract_x 
_atom_site_fract_y 
_atom_site_fract_z 
_atom_site_charge 
Fe1        Fe  0.66919710  0.46283332  0.64016654     1.65800
Fe2        Fe  0.65645507  0.36753420  0.60853598     1.73200
Fe3        Fe  0.72345293  0.38527840  0.63280525     1.54400
O4          O  0.74271731  0.44870830  0.63250027    -0.81100
O5          O  0.66402590  0.31069543  0.62777934    -0.79400
O6          O  0.70652254  0.49770879  0.63075655    -0.83600
O7          O  0.68713661  0.44889204  0.67335645    -0.78500
O8          O  0.73154047  0.37924409  0.59685062    -0.80200
O9          O  0.62003765  0.37943381  0.62867819    -0.83000
C10         C  0.70460445  0.41956856  0.68174284     0.97800
C11         C  0.73363255  0.48860908  0.63109666     1.05200
O12         O  0.68290722  0.40528727  0.62744041    -1.12000
O13         O  0.64665254  0.41960003  0.58664282    -0.74400
O14         O  0.65149030  0.48208892  0.60774972    -0.77900
O15         O  0.71765021  0.39050884  0.66901570    -0.78600
C16         C  0.64562428  0.46167953  0.58859853     0.96700
O17         O  0.62900537  0.43782875  0.65167590    -0.76500
O18         O  0.68901272  0.34992148  0.58552940    -0.81700
C19         C  0.68891614  0.29392492  0.63204968     0.99300
C20         C  0.71559002  0.35948110  0.58162069     1.05200
O21         O  0.71203268  0.31764793  0.63363645    -0.77400
C22         C  0.61241244  0.40647475  0.64461967     1.03500
Fe23       Fe  0.83894539  0.09782184  0.37926650     1.65800
Fe24       Fe  0.84985707  0.19681615  0.40785551     1.73200
Fe25       Fe  0.78212154  0.17090506  0.38748404     1.54400
O26         O  0.78440510  0.15951043  0.35182035    -0.81100
O27         O  0.81805071  0.21867017  0.43078760    -0.79400
O28         O  0.81888560  0.10718917  0.34657268    -0.83600
O29         O  0.80369134  0.06062498  0.39053909    -0.78500
O30         O  0.79204751  0.23810320  0.38167850    -0.80200
O31         O  0.86048551  0.14744324  0.43164264    -0.83000
C32         C  0.77649556  0.06746435  0.39303577     0.97800
C33         C  0.79825167  0.13196936  0.33888359     1.05200
O34         O  0.82368765  0.15500589  0.39130201    -1.12000
O35         O  0.88689400  0.18233931  0.38843983    -0.74400
O36         O  0.87739269  0.12416597  0.36563501    -0.77900
O37         O  0.76554674  0.10640934  0.39226845    -0.78600
C38         C  0.89464432  0.15414361  0.37304551     0.96700
O39         O  0.85917034  0.08339682  0.41146642    -0.76500
O40         O  0.83994236  0.24980228  0.38552931    -0.81700
C41         C  0.79161391  0.20978507  0.43569642     0.99300
C42         C  0.81432336  0.26370712  0.38031004     1.05200
O43         O  0.77603376  0.18393097  0.42310321    -0.77400
C44         C  0.86419150  0.10546269  0.43032506     1.03500
Fe45       Fe  0.33901996  0.43511616  0.63084299     1.65800
Fe46       Fe  0.35344550  0.33951680  0.60039834     1.73200
Fe47       Fe  0.28349268  0.36404771  0.61534305     1.54400
O48         O  0.28031647  0.37517700  0.65093795    -0.81100
O49         O  0.32503891  0.31788403  0.57503797    -0.79400
O50         O  0.31779268  0.41863984  0.66269041    -0.83600
O51         O  0.30318315  0.47218210  0.62134400    -0.78500
O52         O  0.29308180  0.29709894  0.62195665    -0.80200
O53         O  0.36543482  0.39062599  0.57838877    -0.83000
C54         C  0.27746815  0.46671932  0.61352481     0.97800
C55         C  0.29419068  0.39651981  0.66682114     1.05200
O56         O  0.32536912  0.37964201  0.61590557    -1.12000
O57         O  0.38849946  0.35246617  0.62173256    -0.74400
O58         O  0.37842612  0.41082785  0.64398505    -0.77900
O59         O  0.26765475  0.42814080  0.60876909    -0.78600
C60         C  0.39587187  0.38087855  0.63699353     0.96700
O61         O  0.35911020  0.45403933  0.59876611    -0.76500
O62         O  0.34156015  0.28632034  0.62131086    -0.81700
C63         C  0.29972724  0.32738576  0.56781107     0.99300
C64         C  0.31553765  0.27241362  0.62493163     1.05200
O65         O  0.28253266  0.35217813  0.57946280    -0.77400
C66         C  0.36612428  0.43304634  0.57985295     1.03500
Fe67       Fe  0.16415916  0.06669001  0.37245233     1.65800
Fe68       Fe  0.15443112  0.16573226  0.40089834     1.73200
Fe69       Fe  0.22124297  0.13974777  0.37887250     1.54400
O70         O  0.23721637  0.07471219  0.38147632    -0.81100
O71         O  0.16455598  0.21829058  0.37905722    -0.79400
O72         O  0.19855206  0.03035907  0.38577907    -0.83600
O73         O  0.18590583  0.07330485  0.33996258    -0.78500
O74         O  0.22853464  0.14960893  0.41437113    -0.80200
O75         O  0.11762116  0.15266867  0.38082136    -0.83000
C76         C  0.20451181  0.10074090  0.33127037     0.97800
C77         C  0.22599571  0.03655262  0.38522148     1.05200
O78         O  0.17982971  0.12393775  0.38389000    -1.12000
O79         O  0.14274337  0.11733969  0.42459930    -0.74400
O80         O  0.14188802  0.05386710  0.40407648    -0.77900
O81         O  0.21679566  0.13146199  0.34318938    -0.78600
C82         C  0.13710813  0.07603054  0.42291343     0.96700
O83         O  0.12692741  0.09454317  0.35764819    -0.76500
O84         O  0.18745374  0.18567189  0.42348779    -0.81700
C85         C  0.19030527  0.23301314  0.37559446     0.99300
C86         C  0.21391996  0.17549641  0.42769508     1.05200
O87         O  0.21267230  0.20774568  0.37572479    -0.77400
C88         C  0.11034046  0.12590254  0.36452523     1.03500
Fe89       Fe  0.16628146  0.93777886  0.63182040     1.65800
Fe90       Fe  0.15695597  0.84279661  0.59926762     1.73200
Fe91       Fe  0.22315996  0.86489926  0.62391692     1.54400
O92         O  0.24003338  0.92948396  0.62307493    -0.81100
O93         O  0.16581063  0.78713989  0.61921622    -0.79400
O94         O  0.20196271  0.97556717  0.62191960    -0.83600
O95         O  0.18597898  0.92630236  0.66488340    -0.78500
O96         O  0.23183336  0.85779195  0.58843908    -0.80200
O97         O  0.11938060  0.85360309  0.61862897    -0.83000
C98         C  0.20571953  0.89965098  0.67251545     0.97800
C99         C  0.22931072  0.96840747  0.62169975     1.05200
O100        O  0.18204282  0.88194763  0.61853765    -1.12000
O101        O  0.14649905  0.89429741  0.57721259    -0.74400
O102        O  0.14677712  0.95571998  0.59962083    -0.77900
O103        O  0.21812944  0.87052065  0.65964361    -0.78600
C104        C  0.14212236  0.93567243  0.58009179     0.96700
O105        O  0.12747103  0.90898089  0.64371537    -0.76500
O106        O  0.19033183  0.82557098  0.57653929    -0.81700
C107        C  0.19107499  0.77214381  0.62418202     0.99300
C108        C  0.21713893  0.83530054  0.57358402     1.05200
O109        O  0.21353769  0.79716840  0.62562420    -0.77400
C110        C  0.11089439  0.87908306  0.63508735     1.03500
Fe111      Fe  0.34012896  0.56860089  0.36973768     1.65800
Fe112      Fe  0.35397480  0.66172432  0.40168258     1.73200
Fe113      Fe  0.28393977  0.63566147  0.38617133     1.54400
O114        O  0.28005229  0.61668911  0.35112381    -0.81100
O115        O  0.32908670  0.66770452  0.43156695    -0.79400
O116        O  0.32280694  0.59001809  0.33775366    -0.83600
O117        O  0.30238267  0.53190090  0.37537001    -0.78500
O118        O  0.29059635  0.70075607  0.37562421    -0.80200
O119        O  0.37451103  0.60776222  0.41771029    -0.83000
C120        C  0.27965116  0.53541948  0.38807061     0.97800
C121        C  0.29642292  0.60302380  0.33435327     1.05200
O122        O  0.32598205  0.62254788  0.38577168    -1.12000
O123        O  0.38300120  0.66254961  0.37407730    -0.74400
O124        O  0.38195916  0.59283815  0.36161624    -0.77900
O125        O  0.27237871  0.57220101  0.39738418    -0.78600
C126        C  0.39515020  0.62979530  0.36407474     0.96700
O127        O  0.35562375  0.54576933  0.40164642    -0.76500
O128        O  0.33526336  0.71918549  0.38815426    -0.81700
C129        C  0.30190204  0.66984697  0.43576384     0.99300
C130        C  0.31052856  0.72957622  0.37931155     1.05200
O131        O  0.28271688  0.65746792  0.42089340    -0.77400
C132        C  0.36909555  0.56604038  0.41818246     1.03500
Fe133      Fe  0.83852840  0.95960324  0.64013350     1.65800
Fe134      Fe  0.85062026  0.86415158  0.60889545     1.73200
Fe135      Fe  0.78201790  0.88673897  0.63014310     1.54400
O136        O  0.78299822  0.90349757  0.66522416    -0.81100
O137        O  0.82036582  0.84825933  0.58370864    -0.79400
O138        O  0.82355005  0.94289304  0.67366676    -0.83600
O139        O  0.80084632  0.99490116  0.63455768    -0.78500
O140        O  0.79249932  0.82081855  0.63881653    -0.80200
O141        O  0.86381122  0.91644373  0.58759307    -0.83000
C142        C  0.77509367  0.98876947  0.62702304     0.97800
C143        C  0.79963273  0.92379669  0.67968201     1.05200
O144        O  0.82372555  0.90332784  0.62651607    -1.12000
O145        O  0.88605617  0.87184066  0.63084028    -0.74400
O146        O  0.87963973  0.93647851  0.64881583    -0.77900
O147        O  0.76570555  0.95001762  0.62191345    -0.78600
C148        C  0.89518825  0.90297411  0.64387897     0.96700
O149        O  0.85273544  0.97968397  0.60683246    -0.76500
O150        O  0.83876065  0.80875031  0.62809064    -0.81700
C151        C  0.79304598  0.85068793  0.58046961     0.99300
C152        C  0.81476386  0.79522743  0.63690071     1.05200
O153        O  0.77585741  0.86823626  0.59537760    -0.77400
C154        C  0.86119715  0.95867103  0.58846297     1.03500
Fe155      Fe  0.66954520  0.59265075  0.37872033     1.65800
Fe156      Fe  0.65407991  0.69074168  0.40670516     1.73200
Fe157      Fe  0.72267914  0.67189140  0.38597848     1.54400
O158        O  0.74196805  0.60912134  0.38770471    -0.81100
O159        O  0.66337714  0.74586622  0.38578997    -0.79400
O160        O  0.70597981  0.55975461  0.39138787    -0.83600
O161        O  0.69017424  0.60378681  0.34628467    -0.78500
O162        O  0.72846185  0.68136537  0.42173747    -0.80200
O163        O  0.61880769  0.67521738  0.38527144    -0.83000
C164        C  0.70735762  0.63350000  0.33776463     0.97800
C165        C  0.73295931  0.56941851  0.39029436     1.05200
O166        O  0.68196181  0.65162566  0.39033298    -1.12000
O167        O  0.64288496  0.64020695  0.42962816    -0.74400
O168        O  0.64849274  0.57630982  0.41022776    -0.77900
O169        O  0.71892943  0.66414793  0.35018900    -0.78600
C170        C  0.64120439  0.59785933  0.42864056     0.96700
O171        O  0.63066723  0.61524304  0.36438532    -0.76500
O172        O  0.68514259  0.71155175  0.43080825    -0.81700
C173        C  0.68867308  0.76254003  0.38231822     0.99300
C174        C  0.71180425  0.70335583  0.43551830     1.05200
O175        O  0.71161505  0.73864236  0.38297005    -0.77400
C176        C  0.61273234  0.64570368  0.37003327     1.03500
Fe177      Fe  0.83696859  0.43365446  0.88382821     1.65800
Fe178      Fe  0.85025117  0.33339170  0.90964660     1.73200
Fe179      Fe  0.78230341  0.35734033  0.88980284     1.54400
O180        O  0.76526916  0.42121385  0.89446364    -0.81100
O181        O  0.84115262  0.28262535  0.88634927    -0.79400
O182        O  0.80314321  0.46662171  0.90002442    -0.83600
O183        O  0.81278170  0.42970975  0.85220098    -0.78500
O184        O  0.77698385  0.34515444  0.92503706    -0.80200
O185        O  0.88568380  0.35126570  0.88921250    -0.83000
C186        C  0.79430432  0.40221654  0.84331381     0.97800
C187        C  0.77582261  0.45934124  0.89943703     1.05200
O188        O  0.82329072  0.37487958  0.89419890    -1.12000
O189        O  0.86110266  0.38011787  0.93450121    -0.74400
O190        O  0.86132472  0.44450907  0.91488298    -0.77900
O191        O  0.78456068  0.36850871  0.85435976    -0.78600
C192        C  0.86647669  0.42153546  0.93337794     0.96700
O193        O  0.87290657  0.40807778  0.86633646    -0.76500
O194        O  0.81866461  0.30910178  0.93241872    -0.81700
C195        C  0.81577203  0.26692515  0.88238975     0.99300
C196        C  0.79236046  0.31902375  0.93745238     1.05200
O197        O  0.79270980  0.29043188  0.88445022    -0.77400
C198        C  0.89104505  0.37855412  0.87272835     1.03500
Fe199      Fe  0.66607092  0.06619637  0.14147082     1.65800
Fe200      Fe  0.64987191  0.15899072  0.11065870     1.73200
Fe201      Fe  0.72084324  0.13645671  0.12538787     1.54400
O202        O  0.72385525  0.12218403  0.16080671    -0.81100
O203        O  0.67471987  0.16558802  0.08056842    -0.79400
O204        O  0.68244797  0.08939274  0.17357149    -0.83600
O205        O  0.70417972  0.03084326  0.13650166    -0.78500
O206        O  0.71295731  0.20248233  0.13399687    -0.80200
O207        O  0.62967982  0.10442096  0.09544219    -0.83000
C208        C  0.72750893  0.03546571  0.12474022     0.97800
C209        C  0.70750173  0.10758528  0.17735447     1.05200
O210        O  0.67909038  0.12108323  0.12594421    -1.12000
O211        O  0.62116319  0.15831939  0.13867382    -0.74400
O212        O  0.62385630  0.08801535  0.14926177    -0.77900
O213        O  0.73500045  0.07279172  0.11619923    -0.78600
C214        C  0.60973294  0.12431512  0.14802804     0.96700
O215        O  0.65196762  0.04325877  0.10890562    -0.76500
O216        O  0.66712863  0.21741823  0.12363288    -0.81700
C217        C  0.70180056  0.16502399  0.07550862     0.99300
C218        C  0.69191178  0.22980141  0.13124967     1.05200
O219        O  0.72134205  0.15309215  0.09011992    -0.77400
C220        C  0.63765738  0.06401230  0.09306901     1.03500
Fe221      Fe  0.16223377  0.41072334  0.86980603     1.65800
Fe222      Fe  0.15492584  0.31246623  0.89962206     1.73200
Fe223      Fe  0.21980900  0.33728466  0.87356221     1.54400
O224        O  0.21297791  0.34763046  0.83822311    -0.81100
O225        O  0.18873431  0.29482849  0.92084138    -0.79400
O226        O  0.17743137  0.39922493  0.83547138    -0.83600
O227        O  0.19935317  0.44757171  0.87719407    -0.78500
O228        O  0.21010924  0.26933041  0.86959178    -0.80200
O229        O  0.14577818  0.36277110  0.92341058    -0.83000
C230        C  0.22661325  0.44018573  0.87825416     0.97800
C231        C  0.19750825  0.37487450  0.82632970     1.05200
O232        O  0.17883983  0.35354138  0.88063048    -1.12000
O233        O  0.11683626  0.32319262  0.88186469    -0.74400
O234        O  0.12117227  0.38500018  0.86096942    -0.77900
O235        O  0.23715068  0.40124281  0.87661183    -0.78600
C236        C  0.10600555  0.35264472  0.86875601     0.96700
O237        O  0.14755979  0.42717576  0.90363314    -0.76500
O238        O  0.16306062  0.25810843  0.87827323    -0.81700
C239        C  0.21511742  0.30631469  0.92390627     0.99300
C240        C  0.18781285  0.24381832  0.87130695     1.05200
O241        O  0.22971409  0.32758909  0.90859469    -0.77400
C242        C  0.14394741  0.40508451  0.92259350     1.03500
Fe243      Fe  0.33551670  0.06807352  0.12835767     1.65800
Fe244      Fe  0.34574560  0.16720950  0.09974981     1.73200
Fe245      Fe  0.27979428  0.14380073  0.12447651     1.54400
O246        O  0.26160884  0.08087355  0.12032951    -0.81100
O247        O  0.33878055  0.22064234  0.12255471    -0.79400
O248        O  0.29876822  0.03344096  0.11774015    -0.83600
O249        O  0.31762914  0.07614529  0.16226706    -0.78500
O250        O  0.27067295  0.15657080  0.08962874    -0.80200
O251        O  0.38390433  0.15117576  0.11711383    -0.83000
C252        C  0.29831485  0.10189854  0.17134541     0.97800
C253        C  0.27160834  0.04191003  0.11724412     1.05200
O254        O  0.32051341  0.12631547  0.11786644    -1.12000
O255        O  0.35343524  0.11776267  0.07506787    -0.74400
O256        O  0.35299868  0.05368630  0.09505980    -0.77900
O257        O  0.28491778  0.13190430  0.15982226    -0.78600
C258        C  0.35585280  0.07552178  0.07589488     0.96700
O259        O  0.37539022  0.09302988  0.14029856    -0.76500
O260        O  0.31216387  0.19000365  0.07894766    -0.81700
C261        C  0.31381712  0.23536424  0.12890714     0.99300
C262        C  0.28526713  0.18136844  0.07588143     1.05200
O263        O  0.29135468  0.21002840  0.12941195    -0.77400
C264        C  0.39241962  0.12250620  0.13189100     1.03500
Fe265      Fe  0.34002162  0.91352280  0.87306011     1.65800
Fe266      Fe  0.34983173  0.81188705  0.89853673     1.73200
Fe267      Fe  0.28384102  0.83913938  0.87659509     1.54400
O268        O  0.26672169  0.90364453  0.87793615    -0.81100
O269        O  0.34060077  0.76143639  0.87467858    -0.79400
O270        O  0.30416187  0.94858526  0.88458739    -0.83600
O271        O  0.32107230  0.90629091  0.83964300    -0.78500
O272        O  0.27652117  0.83129238  0.91225736    -0.80200
O273        O  0.38769514  0.82757215  0.88032871    -0.83000
C274        C  0.30311998  0.87876489  0.83003635     0.97800
C275        C  0.27701928  0.94224690  0.88195795     1.05200
O276        O  0.32485508  0.85507889  0.88236585    -1.12000
O277        O  0.35941922  0.85818296  0.92426486    -0.74400
O278        O  0.35818585  0.92474512  0.90633738    -0.77900
O279        O  0.29029316  0.84731018  0.84110488    -0.78600
C280        C  0.36188435  0.90040011  0.92451456     0.96700
O281        O  0.37928949  0.88951485  0.86014232    -0.76500
O282        O  0.31612859  0.79031050  0.91967159    -0.81700
C283        C  0.31486863  0.74577626  0.87219900     0.99300
C284        C  0.29113605  0.80534066  0.92546723     1.05200
O285        O  0.29254854  0.77104403  0.87383022    -0.77400
C286        C  0.39599514  0.85796598  0.86636165     1.03500
Fe287      Fe  0.16366377  0.57219460  0.13111400     1.65800
Fe288      Fe  0.15828437  0.66673188  0.09846902     1.73200
Fe289      Fe  0.22195481  0.64379443  0.12644137     1.54400
O290        O  0.21430794  0.63756715  0.16200479    -0.81100
O291        O  0.19359105  0.68545363  0.07851795    -0.79400
O292        O  0.18061030  0.58333602  0.16507280    -0.83600
O293        O  0.19950459  0.53382809  0.12255261    -0.78500
O294        O  0.21228274  0.71192340  0.12822455    -0.80200
O295        O  0.15127358  0.61499027  0.07528269    -0.83000
C296        C  0.22692208  0.54037456  0.12272628     0.97800
C297        C  0.19986731  0.60934332  0.17411803     1.05200
O298        O  0.18120503  0.62754266  0.11900320    -1.12000
O299        O  0.11874121  0.65537763  0.11476464    -0.74400
O300        O  0.12449330  0.60227092  0.14138052    -0.77900
O301        O  0.23808451  0.57890514  0.12529021    -0.78600
C302        C  0.10879482  0.63127321  0.13114397     0.96700
O303        O  0.14696078  0.55460422  0.09784206    -0.76500
O304        O  0.16499678  0.72145291  0.11982935    -0.81700
C305        C  0.22022252  0.67443994  0.07645903     0.99300
C306        C  0.18981579  0.73682385  0.12612970     1.05200
O307        O  0.23338074  0.65063969  0.09149084    -0.77400
C308        C  0.14662407  0.57337510  0.07767404     1.03500
Fe309      Fe  0.66851826  0.92940250  0.88190593     1.65800
Fe310      Fe  0.66214577  0.83329024  0.91292478     1.73200
Fe311      Fe  0.72601681  0.85779548  0.88572495     1.54400
O312        O  0.71834189  0.86398937  0.85014735    -0.81100
O313        O  0.69753090  0.81361882  0.93281935    -0.79400
O314        O  0.68742078  0.92173470  0.84872957    -0.83600
O315        O  0.70383434  0.96696576  0.89266288    -0.78500
O316        O  0.71668094  0.78956512  0.88441813    -0.80200
O317        O  0.65548206  0.88325941  0.93665442    -0.83000
C318        C  0.73121732  0.96121750  0.89030750     0.97800
C319        C  0.70590906  0.89562508  0.83904759     1.05200
O320        O  0.68541220  0.87344101  0.89318471    -1.12000
O321        O  0.62268821  0.84667488  0.89627514    -0.74400
O322        O  0.63053045  0.89935276  0.86974486    -0.77900
O323        O  0.74190123  0.92287314  0.88650623    -0.78600
C324        C  0.61384580  0.87087400  0.87939037     0.96700
O325        O  0.64938525  0.94395057  0.91434910    -0.76500
O326        O  0.66893636  0.77977176  0.89088730    -0.81700
C327        C  0.72407583  0.82544013  0.93503971     0.99300
C328        C  0.69421227  0.76441805  0.88604837     1.05200
O329        O  0.73685930  0.85141896  0.92073776    -0.77400
C330        C  0.64953403  0.92419936  0.93416787     1.03500
Fe331      Fe  0.83712201  0.56710277  0.13996582     1.65800
Fe332      Fe  0.85316110  0.65495027  0.10452483     1.73200
Fe333      Fe  0.78233175  0.63639352  0.12182504     1.54400
O334        O  0.76707467  0.57249031  0.11559639    -0.81100
O335        O  0.83695886  0.71574899  0.11555858    -0.79400
O336        O  0.79933787  0.53056921  0.13460228    -0.83600
O337        O  0.81899138  0.59226369  0.17104418    -0.78500
O338        O  0.78103157  0.64768362  0.08596717    -0.80200
O339        O  0.88341203  0.65787301  0.13120382    -0.83000
C340        C  0.79442559  0.61172078  0.17454937     0.97800
C341        C  0.77493869  0.53571853  0.12441580     1.05200
O342        O  0.82413940  0.61980049  0.12223687    -1.12000
O343        O  0.87207190  0.59858863  0.09040757    -0.74400
O344        O  0.85445147  0.53898423  0.10926783    -0.77900
O345        O  0.77905607  0.62722154  0.15773476    -0.78600
C346        C  0.86837348  0.55674598  0.09212967     0.96700
O347        O  0.87807911  0.59285489  0.14881808    -0.76500
O348        O  0.82745805  0.65694589  0.07527875    -0.81700
C349        C  0.81246231  0.72910855  0.12350144     0.99300
C350        C  0.80036167  0.65590250  0.07051896     1.05200
O351        O  0.79119845  0.70295159  0.12770661    -0.77400
C352        C  0.89312527  0.62745727  0.14444979     1.03500
C353        C  0.75443983  0.78640780  0.99310071    -0.11300
C354        C  0.76454025  0.74409117  0.98638434     0.11300
C355        C  0.76392290  0.73084865  0.96255969    -0.03100
C356        C  0.75233985  0.76048795  0.94601559    -0.05800
C357        C  0.74120101  0.80205787  0.95280650    -0.16600
C358        C  0.74242500  0.81579880  0.97654324     0.02300
C359        C  0.77595016  0.71485700  0.00493274     0.12300
C360        C  0.77489649  0.68545601  0.95482605     0.62900
H361        H  0.75058976  0.75061282  0.92769992     0.12300
C362        C  0.73051683  0.86058418  0.98425276     0.55000
H363        H  0.75549311  0.79570799  0.01152589     0.08100
C364        C  0.80455102  0.72014190  0.01397539    -0.05700
C365        C  0.81201312  0.69688237  0.03431414    -0.06500
C366        C  0.79170019  0.66989099  0.04646690    -0.16100
C367        C  0.76366469  0.66198881  0.03633992    -0.01600
C368        C  0.75631013  0.68497006  0.01560096    -0.09200
C369        C  0.82774262  0.75125396  0.00386214     0.65100
H370        H  0.83369474  0.70263494  0.04156614     0.10500
C371        C  0.74134205  0.63045601  0.04723409     0.63500
H372        H  0.73450564  0.68163952  0.00819028     0.07900
F373        F  0.74385836  0.89409598  0.97137754    -0.19600
F374        F  0.73569276  0.86862752  0.00790654    -0.15800
F375        F  0.70057085  0.86174865  0.98050780    -0.19300
F376        F  0.75803072  0.65251477  0.96519409    -0.22700
F377        F  0.80383427  0.68015949  0.96151459    -0.24100
F378        F  0.77333264  0.68030703  0.93063996    -0.18100
F379        F  0.71848469  0.62132429  0.03190709    -0.20600
F380        F  0.72950722  0.64936685  0.06731040    -0.21800
F381        F  0.75461269  0.59039283  0.05283561    -0.19000
F382        F  0.85265991  0.72691226  0.99860661    -0.19100
F383        F  0.83481665  0.78314972  0.02055810    -0.22900
F384        F  0.81906645  0.77295077  0.98361650    -0.24500
C385        C  0.97285439  0.60076016  0.16005298    -0.11300
C386        C  0.98581826  0.64270581  0.15687676     0.11300
C387        C  0.96772776  0.68044710  0.15344880    -0.03100
C388        C  0.93706951  0.67442514  0.15260883    -0.05800
C389        C  0.92405778  0.63168831  0.15320888    -0.16600
C390        C  0.94237248  0.59407065  0.15767068     0.02300
C391        C  0.01780443  0.64356161  0.15154529     0.12300
C392        C  0.98079592  0.72637845  0.14894654     0.62900
H393        H  0.92316439  0.70299526  0.14939579     0.12300
C394        C  0.93070466  0.54648175  0.15788813     0.55000
H395        H  0.98731351  0.57244896  0.16219490     0.08100
C396        C  0.03998417  0.64180292  0.16895955    -0.05700
C397        C  0.06958246  0.63814942  0.16171672    -0.06500
C398        C  0.07738301  0.63654380  0.13776070    -0.16100
C399        C  0.05492386  0.63850339  0.12040741    -0.01600
C400        C  0.02558594  0.64144814  0.12774664    -0.09200
C401        C  0.03236567  0.64306301  0.19495154     0.65100
H402        H  0.08688933  0.63636757  0.17471438     0.10500
C403        C  0.06146157  0.63609348  0.09416011     0.63500
H404        H  0.00811910  0.64180352  0.11483532     0.07900
F405        F  0.95261463  0.51559887  0.16210340    -0.19600
F406        F  0.91843919  0.53628187  0.13626949    -0.15800
F407        F  0.90988513  0.54178866  0.17544249    -0.19300
F408        F  0.99582024  0.72643457  0.12780274    -0.22700
F409        F  0.99995807  0.73771100  0.16680192    -0.24100
F410        F  0.95939676  0.75900978  0.14781395    -0.18100
F411        F  0.03613256  0.63204479  0.08087336    -0.20600
F412        F  0.07884606  0.59949120  0.08935177    -0.21800
F413        F  0.07571645  0.67452165  0.08702683    -0.19000
F414        F  0.05725335  0.64421387  0.20889674    -0.19100
F415        F  0.01629499  0.60557167  0.20086452    -0.22900
F416        F  0.01594264  0.68058006  0.19996132    -0.24500
C417        C  0.47439191  0.82306321  0.85260775    -0.11300
C418        C  0.48922047  0.86310817  0.85743392     0.11300
C419        C  0.47293708  0.90286304  0.86059455    -0.03100
C420        C  0.44209808  0.90025060  0.86112366    -0.05800
C421        C  0.42730420  0.85922175  0.85908786    -0.16600
C422        C  0.44354003  0.82033945  0.85350084     0.02300
C423        C  0.52132964  0.86151259  0.86225148     0.12300
C424        C  0.48814209  0.94738743  0.86462399     0.62900
H425        H  0.42940435  0.92987231  0.86497681     0.12300
C426        C  0.42870977  0.77557396  0.84981417     0.55000
H427        H  0.48723684  0.79315899  0.84980030     0.08100
C428        C  0.53202406  0.84823716  0.88452840    -0.05700
C429        C  0.56229581  0.85122041  0.88897094    -0.06500
C430        C  0.58237952  0.86684605  0.87198193    -0.16100
C431        C  0.57160166  0.87878539  0.84930472    -0.01600
C432        C  0.54115022  0.87557499  0.84487925    -0.09200
C433        C  0.51146084  0.83107419  0.90362148     0.65100
H434        H  0.57042968  0.84197093  0.90616982     0.10500
C435        C  0.59177590  0.89471175  0.82973096     0.63500
H436        H  0.53236469  0.88512160  0.82792307     0.07900
F437        F  0.42221708  0.75680704  0.87141332    -0.19600
F438        F  0.44669852  0.74652832  0.83754733    -0.15800
F439        F  0.40311919  0.78065199  0.83700621    -0.19300
F440        F  0.50532281  0.95780507  0.84532694    -0.22700
F441        F  0.50571101  0.94519265  0.88441418    -0.24100
F442        F  0.46824276  0.98168735  0.86786709    -0.18100
F443        F  0.57716488  0.89829265  0.80846741    -0.20600
F444        F  0.61455165  0.86480941  0.82669408    -0.21800
F445        F  0.60295520  0.93634316  0.83526677    -0.19000
F446        F  0.52603195  0.82335462  0.92458165    -0.19100
F447        F  0.49889434  0.79131818  0.89644589    -0.22900
F448        F  0.48953490  0.86180826  0.90800756    -0.24500
C449        C  0.24358220  0.75910030  0.97476430    -0.11300
C450        C  0.26501817  0.75287456  0.99214718     0.11300
C451        C  0.29448453  0.76456348  0.98776147    -0.03100
C452        C  0.30126941  0.78491926  0.96631474    -0.05800
C453        C  0.28002499  0.79098522  0.94863914    -0.16600
C454        C  0.25064602  0.77755501  0.95273883     0.02300
C455        C  0.25586815  0.73353512  0.01477772     0.12300
C456        C  0.31877132  0.75399458  0.00521644     0.62900
H457        H  0.32371589  0.79489140  0.96281790     0.12300
C458        C  0.22722719  0.78087005  0.93384822     0.55000
H459        H  0.22127099  0.74887483  0.97860523     0.08100
C460        C  0.24349812  0.76035730  0.03266232    -0.05700
C461        C  0.23371977  0.73946423  0.05322510    -0.06500
C462        C  0.23594528  0.69314469  0.05625093    -0.16100
C463        C  0.24911553  0.66646498  0.03869317    -0.01600
C464        C  0.25867009  0.68730425  0.01791244    -0.09200
C465        C  0.24010488  0.81056172  0.02986165     0.65100
H466        H  0.22341349  0.75904121  0.06698075     0.10500
C467        C  0.25216680  0.61641872  0.04163504     0.63500
H468        H  0.26807017  0.66769858  0.00377997     0.07900
F469        F  0.20094653  0.76199334  0.94102330    -0.19600
F470        F  0.23634738  0.75870133  0.91375976    -0.15800
F471        F  0.22208127  0.82517836  0.92859630    -0.19300
F472        F  0.32025781  0.70841411  0.00864649    -0.22700
F473        F  0.31331321  0.77458253  0.02653558    -0.24100
F474        F  0.34595123  0.76820702  0.99725552    -0.18100
F475        F  0.22490162  0.59742822  0.04548481    -0.20600
F476        F  0.27017061  0.60752281  0.06062255    -0.21800
F477        F  0.26434024  0.59656762  0.02190377    -0.19000
F478        F  0.22750567  0.82996936  0.04955021    -0.19100
F479        F  0.22238502  0.81981272  0.01076978    -0.22900
F480        F  0.26724161  0.83013699  0.02639281    -0.24500
C481        C  0.35300909  0.03665114  0.01160502    -0.11300
C482        C  0.36880116  0.99678094  0.01258292     0.11300
C483        C  0.38181412  0.98365013  0.03411170    -0.03100
C484        C  0.37799528  0.01095578  0.05420323    -0.05800
C485        C  0.36129877  0.05043477  0.05346421    -0.16600
C486        C  0.34819714  0.06308877  0.03170352     0.02300
C487        C  0.36833650  0.96781719  0.99119113     0.12300
C488        C  0.39904465  0.94053296  0.03588672     0.62900
H489        H  0.38768950  0.00123475  0.07080236     0.12300
C490        C  0.32716800  0.10212328  0.02984944     0.55000
H491        H  0.34328664  0.04588556  0.99492649     0.08100
C492        C  0.34268078  0.94375862  0.98482342    -0.05700
C493        C  0.34204900  0.92134692  0.96309858    -0.06500
C494        C  0.36601135  0.92218728  0.94763349    -0.16100
C495        C  0.39220313  0.94397797  0.95439108    -0.01600
C496        C  0.39286184  0.96710626  0.97609840    -0.09200
C497        C  0.31522040  0.94389659  0.00004877     0.65100
H498        H  0.32221579  0.90427235  0.95756568     0.10500
C499        C  0.41928155  0.94154532  0.93892404     0.63500
H500        H  0.41230729  0.98548967  0.98124441     0.07900
F501        F  0.30599191  0.09834956  0.04715091    -0.19600
F502        F  0.31292052  0.10320203  0.00833834    -0.15800
F503        F  0.34224435  0.14188610  0.03244531    -0.19300
F504        F  0.42359981  0.94293687  0.02163955    -0.22700
F505        F  0.38180208  0.90498946  0.02875162    -0.24100
F506        F  0.40824227  0.93234930  0.05868794    -0.18100
F507        F  0.44282781  0.96393861  0.94882245    -0.20600
F508        F  0.41353711  0.96028990  0.91720051    -0.21800
F509        F  0.42715186  0.89736842  0.93581616    -0.19000
F510        F  0.29630285  0.90961347  0.99387903    -0.19100
F511        F  0.30063461  0.98390776  0.99721486    -0.22900
F512        F  0.32228917  0.93846375  0.02352778    -0.24500
C513        C  0.23930429  0.92935948  0.10104847    -0.11300
C514        C  0.21885975  0.92365207  0.11932097     0.11300
C515        C  0.21253076  0.95988586  0.13449086    -0.03100
C516        C  0.22872164  0.99970303  0.13198433    -0.05800
C517        C  0.25089013  0.00400415  0.11492551    -0.16600
C518        C  0.25498282  0.96947622  0.09821836     0.02300
C519        C  0.20703235  0.87798479  0.12342143     0.12300
C520        C  0.19004624  0.95579239  0.15408768     0.62900
H521        H  0.22561321  0.02661635  0.14448071     0.12300
C522        C  0.27608229  0.97439685  0.07769317     0.55000
H523        H  0.24382267  0.90139878  0.08949592     0.08100
C524        C  0.18547718  0.85847326  0.10872726    -0.05700
C525        C  0.17913374  0.81273637  0.11137547    -0.06500
C526        C  0.19356979  0.78610132  0.12814557    -0.16100
C527        C  0.21341220  0.80668615  0.14407864    -0.01600
C528        C  0.22005906  0.85227308  0.14117710    -0.09200
C529        C  0.16948235  0.88563956  0.09018098     0.65100
H530        H  0.16384980  0.79687655  0.09940659     0.10500
C531        C  0.22742011  0.78112352  0.16417298     0.63500
H532        H  0.23648647  0.86789348  0.15224863     0.07900
F533        F  0.26938628  0.94457047  0.05983978    -0.19600
F534        F  0.30444032  0.96639922  0.08514580    -0.15800
F535        F  0.27442775  0.01697437  0.06840880    -0.19300
F536        F  0.20085625  0.92870322  0.17170714    -0.22700
F537        F  0.16424617  0.93769015  0.14561502    -0.24100
F538        F  0.18339123  0.99695249  0.16367960    -0.18100
F539        F  0.24013336  0.80961898  0.18045962    -0.20600
F540        F  0.24905701  0.75319279  0.15564404    -0.21800
F541        F  0.20632700  0.75616408  0.17575661    -0.19000
F542        F  0.14854832  0.86048111  0.07849477    -0.19100
F543        F  0.18908886  0.90164934  0.07365695    -0.22900
F544        F  0.15539708  0.92126388  0.10067102    -0.24500
C545        C  0.31632356  0.36332599  0.12589163    -0.11300
C546        C  0.28751415  0.37317095  0.13283986     0.11300
C547        C  0.26965299  0.33894424  0.14222916    -0.03100
C548        C  0.28085272  0.29536762  0.14319625    -0.05800
C549        C  0.30869258  0.28404864  0.13403560    -0.16600
C550        C  0.32756327  0.31938419  0.12657565     0.02300
C551        C  0.27580704  0.41889353  0.12881679     0.12300
C552        C  0.23827537  0.34786171  0.15013322     0.62900
H553        H  0.26681201  0.26903989  0.14978356     0.12300
C554        C  0.35920707  0.31161966  0.11920804     0.55000
H555        H  0.32962903  0.39035395  0.11906923     0.08100
C556        C  0.28017769  0.45414602  0.14504486    -0.05700
C557        C  0.26543914  0.49476986  0.14133634    -0.06500
C558        C  0.24634810  0.50076648  0.12222848    -0.16100
C559        C  0.24408172  0.46689917  0.10487028    -0.01600
C560        C  0.25898957  0.42635690  0.10850884    -0.09200
C561        C  0.29992964  0.44862920  0.16632928     0.65100
H562        H  0.26761899  0.52156909  0.15401872     0.10500
C563        C  0.22683735  0.47403641  0.08232687     0.63500
H564        H  0.25683020  0.39941749  0.09589363     0.07900
F565        F  0.37394434  0.35137098  0.11523551    -0.19600
F566        F  0.36036515  0.28698644  0.09866547    -0.15800
F567        F  0.37386708  0.28920759  0.13688375    -0.19300
F568        F  0.22150998  0.36085912  0.13109783    -0.22700
F569        F  0.23780939  0.38124677  0.16691702    -0.24100
F570        F  0.22529002  0.31034961  0.15984956    -0.18100
F571        F  0.23037812  0.43896162  0.06669658    -0.20600
F572        F  0.23648950  0.51257386  0.07140770    -0.21800
F573        F  0.19727960  0.47786793  0.08720318    -0.19000
F574        F  0.30040126  0.48661433  0.18022179    -0.19100
F575        F  0.32827969  0.44013028  0.15896163    -0.22900
F576        F  0.29027001  0.41353521  0.18006547    -0.24500
C577        C  0.21874599  0.13126659  0.85198109    -0.11300
C578        C  0.20801666  0.10349160  0.86997140     0.11300
C579        C  0.18701617  0.12065895  0.88598494    -0.03100
C580        C  0.17906814  0.16601406  0.88444794    -0.05800
C581        C  0.19168594  0.19479681  0.86768258    -0.16600
C582        C  0.21045006  0.17649144  0.85025945     0.02300
C583        C  0.22291717  0.05978922  0.87405814     0.12300
C584        C  0.17429817  0.09188313  0.90549030     0.62900
H585        H  0.16455356  0.18009857  0.89759107     0.12300
C586        C  0.22228541  0.20448261  0.83017422     0.55000
H587        H  0.23495096  0.11793055  0.83992302     0.08100
C588        C  0.21737986  0.02086580  0.86054680    -0.05700
C589        C  0.23430060  0.98230110  0.86490051    -0.06500
C590        C  0.25717290  0.98189962  0.88157125    -0.16100
C591        C  0.26237179  0.02093697  0.89522586    -0.01600
C592        C  0.24503875  0.05898416  0.89118881    -0.09200
C593        C  0.19416773  0.02010330  0.84136997     0.65100
H594        H  0.23071021  0.95262764  0.85440029     0.10500
C595        C  0.28642705  0.02339001  0.91369877     0.63500
H596        H  0.24934073  0.08939726  0.90091991     0.07900
F597        F  0.23074510  0.17792259  0.81140680    -0.19600
F598        F  0.24635930  0.22868564  0.83771910    -0.15800
F599        F  0.20091555  0.23341357  0.82214945    -0.19300
F600        F  0.19582430  0.08202967  0.92177003    -0.22700
F601        F  0.16339734  0.05256763  0.89623357    -0.24100
F602        F  0.15157402  0.11316944  0.91712428    -0.18100
F603        F  0.28334567  0.06047824  0.92804372    -0.20600
F604        F  0.31351826  0.02621978  0.90281055    -0.21800
F605        F  0.28551689  0.98599248  0.92792066    -0.19000
F606        F  0.19340838  0.97952853  0.82968776    -0.19100
F607        F  0.19993384  0.05284968  0.82491144    -0.22900
F608        F  0.16680472  0.02746909  0.85108129    -0.24500
C609        C  0.25936926  0.55270855  0.89503636    -0.11300
C610        C  0.27786953  0.56052592  0.87567794     0.11300
C611        C  0.28368382  0.52528354  0.85973195    -0.03100
C612        C  0.26769880  0.48511465  0.86196921    -0.05800
C613        C  0.24673448  0.47916092  0.87986923    -0.16600
C614        C  0.24375384  0.51231620  0.89751474     0.02300
C615        C  0.28912569  0.60681296  0.87186127     0.12300
C616        C  0.30625942  0.53052557  0.84026461     0.62900
H617        H  0.27039226  0.45887714  0.84902630     0.12300
C618        C  0.22456189  0.50471359  0.91901670     0.55000
H619        H  0.25619971  0.57941239  0.90764112     0.08100
C620        C  0.27157412  0.63967707  0.86093100    -0.05700
C621        C  0.28215765  0.68377229  0.85959824    -0.06500
C622        C  0.30937395  0.69662847  0.86926148    -0.16100
C623        C  0.32759245  0.66295166  0.87922568    -0.01600
C624        C  0.31692861  0.61863657  0.88043360    -0.09200
C625        C  0.24123636  0.62848232  0.85143366     0.65100
H626        H  0.26843432  0.70922643  0.85183061     0.10500
C627        C  0.35768178  0.67345652  0.88930174     0.63500
H628        H  0.32988669  0.59287602  0.88875159     0.07900
F629        F  0.19530787  0.50414367  0.91266739    -0.19600
F630        F  0.22843843  0.53789412  0.93570850    -0.15800
F631        F  0.23171074  0.46436660  0.92930512    -0.19300
F632        F  0.33319996  0.54130832  0.84991036    -0.22700
F633        F  0.29788799  0.56403207  0.82502654    -0.24100
F634        F  0.30958543  0.49159328  0.82741174    -0.18100
F635        F  0.37149173  0.63572918  0.89785104    -0.20600
F636        F  0.35512919  0.70348552  0.90769623    -0.21800
F637        F  0.37534152  0.69128164  0.87186760    -0.19000
F638        F  0.22818830  0.66486458  0.84077319    -0.19100
F639        F  0.22318134  0.61471192  0.86959845    -0.22900
F640        F  0.24317842  0.59472499  0.83491945    -0.24500
C641        C  0.12615830  0.48186268  0.03247654    -0.11300
C642        C  0.13864006  0.49963845  0.01190487     0.11300
C643        C  0.15267611  0.54169705  0.01288441    -0.03100
C644        C  0.15406114  0.56432298  0.03457057    -0.05800
C645        C  0.14234432  0.54638997  0.05555508    -0.16600
C646        C  0.12808216  0.50403956  0.05445468     0.02300
C647        C  0.13828831  0.47264762  0.98974672     0.12300
C648        C  0.16644288  0.56249399  0.99107933     0.62900
H649        H  0.16500851  0.59635842  0.03525608     0.12300
C650        C  0.11490184  0.48190169  0.07607473     0.55000
H651        H  0.11548775  0.44964163  0.03121781     0.08100
C652        C  0.15892534  0.43818721  0.98574499    -0.05700
C653        C  0.15927634  0.41675287  0.96370525    -0.06500
C654        C  0.14026639  0.42906815  0.94538346    -0.16100
C655        C  0.11930395  0.46313358  0.94943790    -0.01600
C656        C  0.11839246  0.48387967  0.97180684    -0.09200
C657        C  0.18101449  0.42479608  0.00446827     0.65100
H658        H  0.17520167  0.39077644  0.96031803     0.10500
C659        C  0.09793160  0.47728419  0.93041871     0.63500
H660        H  0.10268233  0.51012478  0.97528736     0.07900
F661        F  0.13691319  0.47018225  0.09157501    -0.19600
F662        F  0.09956716  0.44345652  0.07038865    -0.15800
F663        F  0.09560677  0.51071281  0.08706536    -0.19300
F664        F  0.14480671  0.57236153  0.97489285    -0.22700
F665        F  0.18624557  0.53326732  0.98098443    -0.24100
F666        F  0.18132675  0.60159354  0.99626852    -0.18100
F667        F  0.07772168  0.50793698  0.93872896    -0.20600
F668        F  0.08266977  0.44054212  0.92219610    -0.21800
F669        F  0.11304353  0.49677403  0.91199138    -0.19000
F670        F  0.20023608  0.39250190  0.99638376    -0.19100
F671        F  0.16649340  0.40777773  0.02384772    -0.22900
F672        F  0.19740974  0.46145273  0.01128131    -0.24500
C673        C  0.26391848  0.25635476  0.97079730    -0.11300
C674        C  0.24406465  0.25576143  0.98965218     0.11300
C675        C  0.21631667  0.27614527  0.98764270    -0.03100
C676        C  0.20890014  0.29537463  0.96612487    -0.05800
C677        C  0.22795047  0.29383965  0.94665355    -0.16600
C678        C  0.25616597  0.27473857  0.94896014     0.02300
C679        C  0.25334364  0.23533448  0.01182946     0.12300
C680        C  0.19433630  0.27638419  0.00786336     0.62900
H681        H  0.18747996  0.31043220  0.96404389     0.12300
C682        C  0.27734718  0.27192880  0.92838631     0.55000
H683        H  0.28530263  0.24138050  0.97325674     0.08100
C684        C  0.25128966  0.18891248  0.01587034    -0.05700
C685        C  0.25972805  0.17252345  0.03797010    -0.06500
C686        C  0.27117953  0.20109837  0.05522241    -0.16100
C687        C  0.27193195  0.24778139  0.05136709    -0.01600
C688        C  0.26341154  0.26402090  0.02941909    -0.09200
C689        C  0.24159902  0.15689063  0.99662988     0.65100
H690        H  0.25874894  0.13712564  0.04151621     0.10500
C691        C  0.28074758  0.28049628  0.07051072     0.63500
H692        H  0.26445449  0.29944521  0.02573536     0.07900
F693        F  0.26438216  0.24902294  0.90995495    -0.19600
F694        F  0.30291909  0.24985678  0.93435960    -0.15800
F695        F  0.28488405  0.31441820  0.92107900    -0.19300
F696        F  0.20560285  0.29980561  0.02677607    -0.22700
F697        F  0.18829844  0.23315046  0.01481174    -0.24100
F698        F  0.16809086  0.29620600  0.00155336    -0.18100
F699        F  0.31035193  0.27682699  0.07503055    -0.20600
F700        F  0.26497928  0.27156434  0.09076321    -0.21800
F701        F  0.27518210  0.32424303  0.06413804    -0.19000
F702        F  0.23849087  0.11379145  0.00500328    -0.19100
F703        F  0.26234071  0.15649767  0.97885566    -0.22900
F704        F  0.21493302  0.16995800  0.98738097    -0.24500
C705        C  0.68719280  0.35692047  0.12755764    -0.11300
C706        C  0.71652729  0.36802644  0.13174095     0.11300
C707        C  0.73582291  0.33558625  0.14086004    -0.03100
C708        C  0.72639297  0.29102415  0.14163410    -0.05800
C709        C  0.69772282  0.27844330  0.13507036    -0.16600
C710        C  0.67696545  0.31278744  0.12999662     0.02300
C711        C  0.72657463  0.41416682  0.12713509     0.12300
C712        C  0.76596352  0.34828520  0.15021376     0.62900
H713        H  0.74177810  0.26557722  0.14699191     0.12300
C714        C  0.64417929  0.30412605  0.12785235     0.55000
H715        H  0.67243168  0.38316030  0.12205511     0.08100
C716        C  0.74177302  0.42564584  0.10622637    -0.05700
C717        C  0.75646176  0.46698190  0.10524168    -0.06500
C718        C  0.75475906  0.49730004  0.12397481    -0.16100
C719        C  0.73624709  0.48800464  0.14340456    -0.01600
C720        C  0.72262209  0.44607500  0.14481213    -0.09200
C721        C  0.74222586  0.39437484  0.08518519     0.65100
H722        H  0.77005361  0.47534482  0.09022815     0.10500
C723        C  0.73183311  0.52176636  0.16291777     0.63500
H724        H  0.70999240  0.43701895  0.16024904     0.07900
F725        F  0.62827424  0.34343074  0.12805536    -0.19600
F726        F  0.63477595  0.27882169  0.14675965    -0.15800
F727        F  0.63787800  0.28220285  0.10705325    -0.19300
F728        F  0.76274467  0.37802992  0.16865887    -0.22700
F729        F  0.78268560  0.36801972  0.13279445    -0.24100
F730        F  0.78115546  0.31157752  0.15847451    -0.18100
F731        F  0.71079587  0.50801710  0.17896324    -0.20600
F732        F  0.72273567  0.56182037  0.15336906    -0.21800
F733        F  0.75793946  0.52794921  0.17479732    -0.19000
F734        F  0.75720281  0.41276009  0.06632364    -0.19100
F735        F  0.71373803  0.38576337  0.07811637    -0.22900
F736        F  0.75560339  0.35456964  0.09097771    -0.24500
C737        C  0.78970685  0.95031500  0.12680911    -0.11300
C738        C  0.77435039  0.91120425  0.12104917     0.11300
C739        C  0.74437614  0.91372526  0.11460338    -0.03100
C740        C  0.73062556  0.95559936  0.11468046    -0.05800
C741        C  0.74556890  0.99478039  0.12109145    -0.16600
C742        C  0.77580301  0.99235396  0.12695241     0.02300
C743        C  0.78937903  0.86744557  0.12318187     0.12300
C744        C  0.72688055  0.87217989  0.10813129     0.62900
H745        H  0.70731020  0.95799290  0.11032732     0.12300
C746        C  0.79287851  0.03344496  0.13442340     0.55000
H747        H  0.81256796  0.94738471  0.13181479     0.08100
C748        C  0.80604157  0.84904628  0.10454826    -0.05700
C749        C  0.81491369  0.80425331  0.10616448    -0.06500
C750        C  0.80742801  0.77767606  0.12563904    -0.16100
C751        C  0.79291819  0.79725993  0.14513023    -0.01600
C752        C  0.78449977  0.84231984  0.14365921    -0.09200
C753        C  0.81395416  0.87637947  0.08296149     0.65100
H754        H  0.82644800  0.78889521  0.09157806     0.10500
C755        C  0.78586491  0.77068140  0.16716250     0.63500
H756        H  0.77228013  0.85752959  0.15792353     0.07900
F757        F  0.79408016  0.06345298  0.11599938    -0.19600
F758        F  0.82137536  0.02320391  0.14085354    -0.15800
F759        F  0.77928411  0.05320329  0.15351590    -0.19300
F760        F  0.72564936  0.84337173  0.12707283    -0.22700
F761        F  0.73996805  0.85064721  0.08934345    -0.24100
F762        F  0.69835298  0.88236021  0.10178964    -0.18100
F763        F  0.77722996  0.79813188  0.18550737    -0.20600
F764        F  0.81039880  0.74731630  0.17438793    -0.21800
F765        F  0.76327510  0.74103444  0.16265553    -0.19000
F766        F  0.82940253  0.85152673  0.06656039    -0.19100
F767        F  0.83126770  0.91214400  0.08960618    -0.22900
F768        F  0.78885851  0.89216933  0.07221064    -0.24500
C769        C  0.61268120  0.98409237  0.98482582    -0.11300
C770        C  0.63652501  0.98847882  0.00028291     0.11300
C771        C  0.66480656  0.97394657  0.99340639    -0.03100
C772        C  0.66820111  0.95499867  0.97101714    -0.05800
C773        C  0.64432722  0.94980853  0.95574185    -0.16600
C774        C  0.61618584  0.96474068  0.96242137     0.02300
C775        C  0.63168130  0.00884006  0.02362014     0.12300
C776        C  0.69111808  0.97776455  0.00979283     0.62900
H777        H  0.68952033  0.94322407  0.96533570     0.12300
C778        C  0.59014397  0.95907785  0.94610506     0.55000
H779        H  0.59133044  0.99559972  0.99056036     0.08100
C780        C  0.63445437  0.05525837  0.02698501    -0.05700
C781        C  0.63507836  0.07162392  0.05007143    -0.06500
C782        C  0.63246742  0.04324675  0.06973591    -0.16100
C783        C  0.62700557  0.99718376  0.06616191    -0.01600
C784        C  0.62681881  0.98067296  0.04294539    -0.09200
C785        C  0.63681601  0.08723371  0.00627957     0.65100
H786        H  0.63869539  0.10693530  0.05288366     0.10500
C787        C  0.62130711  0.96564383  0.08650166     0.63500
H788        H  0.62419539  0.94525735  0.03972006     0.07900
F789        F  0.56450610  0.97492587  0.95612513    -0.19600
F790        F  0.58624643  0.91436376  0.94088555    -0.15800
F791        F  0.59512293  0.98231338  0.92547040    -0.19300
F792        F  0.68636537  0.95243966  0.02975125    -0.22700
F793        F  0.69551854  0.02168002  0.01633571    -0.24100
F794        F  0.71664902  0.96287960  0.99921873    -0.18100
F795        F  0.60095667  0.98413237  0.10172752    -0.20600
F796        F  0.64714092  0.95763027  0.09846829    -0.21800
F797        F  0.61027019  0.92512005  0.07877459    -0.19000
F798        F  0.64065598  0.13094704  0.01358057    -0.19100
F799        F  0.61134306  0.08503586  0.99314231    -0.22900
F800        F  0.66032138  0.07614023  0.99205077    -0.24500
C801        C  0.53045121  0.16168615  0.15894167    -0.11300
C802        C  0.51576561  0.12076289  0.15685606     0.11300
C803        C  0.53222456  0.08085998  0.15587743    -0.03100
C804        C  0.56306067  0.08360120  0.15545634    -0.05800
C805        C  0.57801015  0.12487011  0.15519374    -0.16600
C806        C  0.56134449  0.16463360  0.15829504     0.02300
C807        C  0.48375937  0.12133969  0.15162213     0.12300
C808        C  0.51743093  0.03573284  0.15283077     0.62900
H809        H  0.57553208  0.05319847  0.15318038     0.12300
C810        C  0.57552316  0.21036971  0.15999065     0.55000
H811        H  0.51737894  0.19181955  0.15947529     0.08100
C812        C  0.46178492  0.12574010  0.16913584    -0.05700
C813        C  0.43200635  0.12580466  0.16218269    -0.06500
C814        C  0.42393387  0.12226613  0.13839290    -0.16100
C815        C  0.44610413  0.11750908  0.12095534    -0.01600
C816        C  0.47563306  0.11785851  0.12795091    -0.09200
C817        C  0.46984000  0.13028677  0.19492427     0.65100
H818        H  0.41478793  0.12907579  0.17522476     0.10500
C819        C  0.43876798  0.10964433  0.09515342     0.63500
H820        H  0.49288986  0.11488626  0.11491322     0.07900
F821        F  0.59906755  0.20903051  0.17532355    -0.19600
F822        F  0.55603015  0.24203714  0.16835725    -0.15800
F823        F  0.58489181  0.22388280  0.13796931    -0.19300
F824        F  0.50748035  0.03142732  0.12996495    -0.22700
F825        F  0.49393558  0.03153444  0.16807376    -0.24100
F826        F  0.53660984  0.00105334  0.15737191    -0.18100
F827        F  0.42481651  0.14645900  0.08582460    -0.20600
F828        F  0.42072701  0.07270886  0.09313811    -0.21800
F829        F  0.46364094  0.10184272  0.08175370    -0.19000
F830        F  0.44520558  0.13340869  0.20910860    -0.19100
F831        F  0.48655761  0.16828917  0.19825458    -0.22900
F832        F  0.48580501  0.09358213  0.20205192    -0.24500
C833        C  0.90509572  0.52322633  0.03468231    -0.11300
C834        C  0.88494689  0.49158848  0.02639194     0.11300
C835        C  0.86314989  0.47475974  0.04184135    -0.03100
C836        C  0.86024594  0.49385600  0.06441686    -0.05800
C837        C  0.87849659  0.52896453  0.07189973    -0.16600
C838        C  0.90261880  0.54172251  0.05740884     0.02300
C839        C  0.88536656  0.47907320  0.00098815     0.12300
C840        C  0.84239003  0.43788059  0.03406905     0.62900
H841        H  0.84227555  0.48366422  0.07568326     0.12300
C842        C  0.92488713  0.57667994  0.06492491     0.55000
H843        H  0.92206361  0.53498058  0.02282997     0.08100
C844        C  0.86937111  0.50369533  0.98406583    -0.05700
C845        C  0.86526884  0.48524643  0.96146567    -0.06500
C846        C  0.87732906  0.44381849  0.95520866    -0.16100
C847        C  0.89688211  0.42260430  0.97116600    -0.01600
C848        C  0.90010627  0.44028653  0.99402952    -0.09200
C849        C  0.85646119  0.54897920  0.99008069     0.65100
H850        H  0.85145166  0.50212058  0.94888118     0.10500
C851        C  0.91461646  0.38183553  0.96418505     0.63500
H852        H  0.91324129  0.42289048  0.00696415     0.07900
F853        F  0.95151407  0.57001644  0.05371614    -0.19600
F854        F  0.92992003  0.57463869  0.08891588    -0.15800
F855        F  0.91470496  0.61865465  0.05909636    -0.19300
F856        F  0.85836218  0.40013030  0.02855535    -0.22700
F857        F  0.82674287  0.45117388  0.01447023    -0.24100
F858        F  0.82249254  0.42677084  0.05153736    -0.18100
F859        F  0.93777131  0.37489052  0.97950251    -0.20600
F860        F  0.92621859  0.38756486  0.94186734    -0.21800
F861        F  0.89706764  0.34421921  0.96447425    -0.19000
F862        F  0.84116558  0.56697584  0.97136144    -0.19100
F863        F  0.87886750  0.57816665  0.99586019    -0.22900
F864        F  0.83742040  0.54543204  0.00894925    -0.24500
C865        C  0.72580246  0.64888814  0.87450034    -0.11300
C866        C  0.71357713  0.62485160  0.89330412     0.11300
C867        C  0.69287429  0.64570940  0.90824367    -0.03100
C868        C  0.68538177  0.69052234  0.90393117    -0.05800
C869        C  0.69858981  0.71530317  0.88572239    -0.16600
C870        C  0.71859521  0.69382504  0.87033168     0.02300
C871        C  0.72496355  0.57917109  0.89778189     0.12300
C872        C  0.67985046  0.62152721  0.92930317     0.62900
H873        H  0.67057333  0.70749106  0.91585978     0.12300
C874        C  0.73239059  0.71799514  0.84962178     0.55000
H875        H  0.74195390  0.63245011  0.86351681     0.08100
C876        C  0.71687393  0.54208292  0.88374806    -0.05700
C877        C  0.73230622  0.50175508  0.88648819    -0.06500
C878        C  0.75577380  0.49790738  0.90240180    -0.16100
C879        C  0.76204046  0.53394040  0.91782410    -0.01600
C880        C  0.74677910  0.57421002  0.91492215    -0.09200
C881        C  0.69280587  0.54558884  0.86539599     0.65100
H882        H  0.72758127  0.47395140  0.87488959     0.10500
C883        C  0.78608583  0.53189785  0.93620170     0.63500
H884        H  0.75280201  0.60287512  0.92543341     0.07900
F885        F  0.74554218  0.68851818  0.83409631    -0.19600
F886        F  0.75364003  0.74738660  0.85749912    -0.15800
F887        F  0.71109617  0.74122194  0.83740821    -0.19300
F888        F  0.70138595  0.61444214  0.94597973    -0.22700
F889        F  0.66833789  0.58086366  0.92243611    -0.24100
F890        F  0.65754696  0.64585983  0.93973101    -0.18100
F891        F  0.78032663  0.56094181  0.95459856    -0.20600
F892        F  0.81245368  0.54392398  0.92594674    -0.21800
F893        F  0.78834625  0.48948652  0.94560798    -0.19000
F894        F  0.68717795  0.50491740  0.85474995    -0.19100
F895        F  0.70093242  0.57545335  0.84806316    -0.22900
F896        F  0.66714051  0.56009588  0.87584011    -0.24500
C897        C  0.78354025  0.15582330  0.86407070    -0.11300
C898        C  0.79397888  0.12888795  0.88240327     0.11300
C899        C  0.81682684  0.14475209  0.89703454    -0.03100
C900        C  0.82544844  0.18970463  0.89500999    -0.05800
C901        C  0.81226207  0.21835792  0.87856819    -0.16600
C902        C  0.79261018  0.20050698  0.86172377     0.02300
C903        C  0.77936166  0.08526011  0.88655511     0.12300
C904        C  0.83127851  0.11469394  0.91510302     0.62900
H905        H  0.84110812  0.20353851  0.90735960     0.12300
C906        C  0.78183176  0.22821059  0.84116301     0.55000
H907        H  0.76715085  0.14216743  0.85228834     0.08100
C908        C  0.75279186  0.08226469  0.89934246    -0.05700
C909        C  0.73901598  0.04046255  0.90142206    -0.06500
C910        C  0.75057118  0.00168137  0.89088243    -0.16100
C911        C  0.77812054  0.00461762  0.87897160    -0.01600
C912        C  0.79174707  0.04672482  0.87684697    -0.09200
C913        C  0.73853653  0.12337790  0.91011252     0.65100
H914        H  0.71834121  0.03815840  0.91074427     0.10500
C915        C  0.79311239  0.96432170  0.86802614     0.63500
H916        H  0.81207809  0.05024465  0.86714441     0.07900
F917        F  0.76264938  0.26073130  0.84886030    -0.19600
F918        F  0.76738156  0.20219792  0.82467261    -0.15800
F919        F  0.80552410  0.24825534  0.83014932    -0.19300
F920        F  0.84323455  0.07792204  0.90397968    -0.22700
F921        F  0.81080114  0.10047241  0.93142931    -0.24100
F922        F  0.85364762  0.13638881  0.92700171    -0.18100
F923        F  0.81965249  0.97543821  0.85766433    -0.20600
F924        F  0.77548359  0.94581611  0.85077685    -0.21800
F925        F  0.79876869  0.93294803  0.88524690    -0.19000
F926        F  0.71365786  0.11268462  0.92294703    -0.19100
F927        F  0.73041056  0.15260792  0.89250809    -0.22900
F928        F  0.75799319  0.14459088  0.92507329    -0.24500
C929        C  0.96954959  0.40574288  0.85700889    -0.11300
C930        C  0.98069007  0.36266680  0.85355855     0.11300
C931        C  0.96118883  0.32585445  0.85250126    -0.03100
C932        C  0.93118061  0.33331587  0.85645796    -0.05800
C933        C  0.92032979  0.37597966  0.86166143    -0.16600
C934        C  0.93948519  0.41327900  0.86081975     0.02300
C935        C  0.01289429  0.35667077  0.85549272     0.12300
C936        C  0.97209958  0.27849967  0.84886763     0.62900
H937        H  0.91617357  0.30525427  0.85721971     0.12300
C938        C  0.92870090  0.46041338  0.86538185     0.55000
H939        H  0.98495586  0.43320090  0.85824536     0.08100
C940        C  0.03289506  0.36985498  0.83775395    -0.05700
C941        C  0.06326010  0.36679483  0.84234258    -0.06500
C942        C  0.07392218  0.35048560  0.86391282    -0.16100
C943        C  0.05347109  0.33629609  0.88147264    -0.01600
C944        C  0.02340059  0.34057007  0.87691819    -0.09200
C945        C  0.02210262  0.38728970  0.81425644     0.65100
H946        H  0.07893135  0.37771623  0.82920370     0.10500
C947        C  0.06273987  0.31790987  0.90534752     0.63500
H948        H  0.00748485  0.33191246  0.89034253     0.07900
F949        F  0.90821250  0.47187977  0.84852029    -0.19600
F950        F  0.95128252  0.49133937  0.86437966    -0.15800
F951        F  0.91606902  0.46309785  0.88747839    -0.19300
F952        F  0.98634455  0.26385751  0.86886371    -0.22700
F953        F  0.99127246  0.27694755  0.83002047    -0.24100
F954        F  0.94921283  0.24930880  0.84425792    -0.18100
F955        F  0.08132716  0.34761464  0.91652659    -0.20600
F956        F  0.07670958  0.27737681  0.90235982    -0.21800
F957        F  0.03902836  0.31077889  0.92015064    -0.19000
F958        F  0.04499905  0.39441456  0.79867952    -0.19100
F959        F  0.00761977  0.42729870  0.81741146    -0.22900
F960        F  0.00304963  0.35676550  0.80422461    -0.24500
C961        C  0.71246423  0.23867875  0.02181588    -0.11300
C962        C  0.73756565  0.21976052  0.01192436     0.11300
C963        C  0.74968325  0.18056354  0.02167448    -0.03100
C964        C  0.73624312  0.16194500  0.04170337    -0.05800
C965        C  0.71138699  0.18156206  0.05212241    -0.16600
C966        C  0.69880092  0.22018075  0.04163737     0.02300
C967        C  0.75162635  0.24420973  0.99237796     0.12300
C968        C  0.77715645  0.15947776  0.01141759     0.62900
H969        H  0.74569786  0.13275188  0.04990188     0.12300
C970        C  0.67226124  0.24389924  0.05191897     0.55000
H971        H  0.70417614  0.26918093  0.01413853     0.08100
C972        C  0.73987582  0.24374434  0.96933568    -0.05700
C973        C  0.75356444  0.26986455  0.95205010    -0.06500
C974        C  0.77834852  0.29586490  0.95719608    -0.16100
C975        C  0.78985858  0.29687729  0.98027607    -0.01600
C976        C  0.77588761  0.27129844  0.99768568    -0.09200
C977        C  0.71316340  0.21574593  0.96301242     0.65100
H978        H  0.74533784  0.26960220  0.93416552     0.10500
C979        C  0.81640645  0.32520734  0.98649153     0.63500
H980        H  0.78384144  0.27203435  0.01563922     0.07900
F981        F  0.64808173  0.21596203  0.05138952    -0.19600
F982        F  0.66507228  0.28197139  0.03943138    -0.15800
F983        F  0.67820841  0.25656333  0.07481143    -0.19300
F984        F  0.80089117  0.18756319  0.01474472    -0.22700
F985        F  0.77351056  0.15197435  0.98758024    -0.24100
F986        F  0.78346435  0.11904877  0.02198451    -0.18100
F987        F  0.82149393  0.32592395  0.01050076    -0.20600
F988        F  0.81209755  0.36866032  0.97910732    -0.21800
F989        F  0.84108041  0.30811593  0.97561479    -0.19000
F990        F  0.70684204  0.21784094  0.93920819    -0.19100
F991        F  0.68886290  0.23086130  0.97517275    -0.22900
F992        F  0.71808920  0.17160850  0.96874701    -0.24500
C993        C  0.78287474  0.61557220  0.24164435    -0.11300
C994        C  0.75219842  0.61851777  0.24284705     0.11300
C995        C  0.73567879  0.62119539  0.22191044    -0.03100
C996        C  0.75059672  0.61937512  0.20028219    -0.05800
C997        C  0.78142168  0.61488867  0.19875511    -0.16600
C998        C  0.79793715  0.61351290  0.21996077     0.02300
C999        C  0.73825296  0.62100947  0.26644482     0.12300
C1000       C  0.70247118  0.62646485  0.22238255     0.62900
H1001       H  0.73794636  0.62128316  0.18426071     0.12300
C1002       C  0.83119543  0.61106104  0.22002637     0.55000
H1003       H  0.79493709  0.61470849  0.25803217     0.08100
C1004       C  0.73341753  0.58266164  0.28044340    -0.05700
C1005       C  0.72196350  0.58819459  0.30327688    -0.06500
C1006       C  0.71580047  0.63066335  0.31256031    -0.16100
C1007       C  0.71985699  0.66893487  0.29817039    -0.01600
C1008       C  0.73120218  0.66325672  0.27533289    -0.09200
C1009       C  0.74092499  0.53626953  0.27148655     0.65100
H1010       H  0.71893909  0.55934404  0.31448421     0.10500
C1011       C  0.71226921  0.71563829  0.30662888     0.63500
H1012       H  0.73541595  0.69205350  0.26433094     0.07900
F1013       F  0.84018210  0.57012718  0.21144748    -0.19600
F1014       F  0.84259825  0.61588482  0.24246709    -0.15800
F1015       F  0.84267826  0.64484738  0.20622073    -0.19300
F1016       F  0.69521530  0.66708060  0.23231738    -0.22700
F1017       F  0.68981500  0.59270471  0.23548601    -0.24100
F1018       F  0.69046440  0.62488605  0.20001719    -0.18100
F1019       F  0.73272681  0.72987431  0.32295358    -0.20600
F1020       F  0.68462222  0.71580745  0.31672100    -0.21800
F1021       F  0.71217707  0.74601807  0.28829481    -0.19000
F1022       F  0.73330366  0.50350796  0.28753682    -0.19100
F1023       F  0.77074495  0.53320302  0.26738190    -0.22900
F1024       F  0.72607591  0.52772242  0.25076486    -0.24500
C1025       C  0.78892317  0.91152288  0.74586812    -0.11300
C1026       C  0.75901647  0.92260612  0.74766429     0.11300
C1027       C  0.74411191  0.93959090  0.72777028    -0.03100
C1028       C  0.75921944  0.94165216  0.70631882    -0.05800
C1029       C  0.78837083  0.92731788  0.70401082    -0.16600
C1030       C  0.80387967  0.91289591  0.72412433     0.02300
C1031       C  0.74364020  0.91481348  0.77037845     0.12300
C1032       C  0.71242105  0.95530810  0.72894751     0.62900
H1033       H  0.74809541  0.95393852  0.69081466     0.12300
C1034       C  0.83534764  0.89696660  0.72237665     0.55000
H1035       H  0.80013012  0.90011861  0.76154093     0.08100
C1036       C  0.73621687  0.87139781  0.77826121    -0.05700
C1037       C  0.72275602  0.86659793  0.80042823    -0.06500
C1038       C  0.71516692  0.90372202  0.81428727    -0.16100
C1039       C  0.72058609  0.94738511  0.80537386    -0.01600
C1040       C  0.73576660  0.95186487  0.78394353    -0.09200
C1041       C  0.74206204  0.83042208  0.76319040     0.65100
H1042       H  0.71825979  0.83355616  0.80725655     0.10500
C1043       C  0.71101946  0.98935716  0.81830922     0.63500
H1044       H  0.74176923  0.98461461  0.77751535     0.07900
F1045       F  0.83707201  0.86181371  0.70663803    -0.19600
F1046       F  0.84590441  0.88252793  0.74389075    -0.15800
F1047       F  0.85312589  0.93141737  0.71468131    -0.19300
F1048       F  0.71088234  0.99456484  0.74166344    -0.22700
F1049       F  0.69495154  0.92339199  0.73957958    -0.24100
F1050       F  0.70103763  0.96341526  0.70677439    -0.18100
F1051       F  0.72376122  0.99103263  0.84030514    -0.20600
F1052       F  0.68079797  0.98961468  0.82055646    -0.21800
F1053       F  0.71905351  0.02777341  0.80641380    -0.19000
F1054       F  0.73106605  0.79197286  0.77342959    -0.19100
F1055       F  0.77187489  0.82472379  0.76001320    -0.22900
F1056       F  0.72877852  0.83543456  0.74148146    -0.24500
C1057       C  0.77862957  0.77115221  0.52969591    -0.11300
C1058       C  0.75746777  0.79450378  0.51700962     0.11300
C1059       C  0.74670840  0.83570637  0.52561276    -0.03100
C1060       C  0.75903914  0.85348159  0.54634718    -0.05800
C1061       C  0.78104433  0.83065625  0.55870105    -0.16600
C1062       C  0.79053853  0.78812993  0.55056484     0.02300
C1063       C  0.74587305  0.77253347  0.49563749     0.12300
C1064       C  0.72202343  0.86012126  0.51322355     0.62900
H1065       H  0.75154742  0.88527109  0.55312339     0.12300
C1066       C  0.81212467  0.75946126  0.56419879     0.55000
H1067       H  0.78562587  0.73900038  0.52303686     0.08100
C1068       C  0.76139848  0.77293089  0.47404226    -0.05700
C1069       C  0.75003550  0.74838190  0.45500482    -0.06500
C1070       C  0.72406246  0.72342827  0.45712421    -0.16100
C1071       C  0.70919382  0.72178179  0.47906597    -0.01600
C1072       C  0.72053901  0.74643590  0.49802238    -0.09200
C1073       C  0.78988260  0.79887040  0.47121734     0.65100
H1074       H  0.76104993  0.74921366  0.43810985     0.10500
C1075       C  0.68176606  0.69372417  0.48270988     0.63500
H1076       H  0.70969720  0.74556979  0.51499182     0.07900
F1077       F  0.81416485  0.71677348  0.55500749    -0.19600
F1078       F  0.80300023  0.75565844  0.58731745    -0.15800
F1079       F  0.83981654  0.77829316  0.56337454    -0.19300
F1080       F  0.69686204  0.83429710  0.51367630    -0.22700
F1081       F  0.72964430  0.86846942  0.49009299    -0.24100
F1082       F  0.71576352  0.90050627  0.52395006    -0.18100
F1083       F  0.68571230  0.65166019  0.47319850    -0.20600
F1084       F  0.65807246  0.71405294  0.47203688    -0.21800
F1085       F  0.67527781  0.68857398  0.50636972    -0.19000
F1086       F  0.80026709  0.79724572  0.44832144    -0.19100
F1087       F  0.81116375  0.78110440  0.48573566    -0.22900
F1088       F  0.78560064  0.84313038  0.47711552    -0.24500
C1089       C  0.22769052  0.56440459  0.23279688    -0.11300
C1090       C  0.23523505  0.60410566  0.24441888     0.11300
C1091       C  0.22795993  0.64551208  0.23399792    -0.03100
C1092       C  0.21463364  0.64566452  0.21161745    -0.05800
C1093       C  0.20768441  0.60594461  0.19958839    -0.16600
C1094       C  0.21332965  0.56444152  0.21079942     0.02300
C1095       C  0.25104533  0.60132855  0.26738870     0.12300
C1096       C  0.23458647  0.68937736  0.24635317     0.62900
H1097       H  0.21024659  0.67710311  0.20296668     0.12300
C1098       C  0.20500272  0.52026351  0.19950011     0.55000
H1099       H  0.23348628  0.53316477  0.24109800     0.08100
C1100       C  0.23631305  0.59085863  0.28859857    -0.05700
C1101       C  0.25236082  0.59098824  0.30971842    -0.06500
C1102       C  0.28260548  0.60085127  0.31050299    -0.16100
C1103       C  0.29755311  0.60994593  0.28910267    -0.01600
C1104       C  0.28142665  0.60964134  0.26785074    -0.09200
C1105       C  0.20372256  0.57984162  0.28902053     0.65100
H1106       H  0.24119268  0.58319245  0.32600605     0.10500
C1107       C  0.33000334  0.62130718  0.28865347     0.63500
H1108       H  0.29234506  0.61655003  0.25131518     0.07900
F1109       F  0.17488702  0.51815737  0.19675187    -0.19600
F1110       F  0.21345996  0.48420692  0.21307745    -0.15800
F1111       F  0.21838784  0.51620230  0.17779903    -0.19300
F1112       F  0.26456069  0.69495539  0.24857674    -0.22700
F1113       F  0.22194629  0.68955758  0.26848802    -0.24100
F1114       F  0.22367760  0.72551377  0.23402817    -0.18100
F1115       F  0.33941432  0.63310458  0.26633500    -0.20600
F1116       F  0.34613928  0.58473358  0.29574802    -0.21800
F1117       F  0.33552775  0.65686191  0.30357388    -0.19000
F1118       F  0.19346620  0.57318887  0.31170114    -0.19100
F1119       F  0.19851601  0.54122831  0.27638029    -0.22900
F1120       F  0.18787382  0.61437265  0.27920423    -0.24500
C1121       C  0.47132035  0.62082901  0.33532965    -0.11300
C1122       C  0.48883943  0.63859576  0.35344745     0.11300
C1123       C  0.47523224  0.65564572  0.37400494    -0.03100
C1124       C  0.44460243  0.65292516  0.37604091    -0.05800
C1125       C  0.42698059  0.63376255  0.35843668    -0.16600
C1126       C  0.44042694  0.61775329  0.33753944     0.02300
C1127       C  0.52148725  0.63740780  0.35147586     0.12300
C1128       C  0.49296870  0.67622912  0.39397436     0.62900
H1129       H  0.43408945  0.66493040  0.39193563     0.12300
C1130       C  0.42229357  0.59879051  0.31751802     0.55000
H1131       H  0.48213232  0.60868839  0.31959896     0.08100
C1132       C  0.53761140  0.59851044  0.35709215    -0.05700
C1133       C  0.56806769  0.60228630  0.36081638    -0.06500
C1134       C  0.58246074  0.64382817  0.36029519    -0.16100
C1135       C  0.56663304  0.68215464  0.35311629    -0.01600
C1136       C  0.53650466  0.67777909  0.34794031    -0.09200
C1137       C  0.52243733  0.55380203  0.36056029     0.65100
H1138       H  0.58046996  0.57320748  0.36608076     0.10500
C1139       C  0.58100058  0.72779987  0.35184343     0.63500
H1140       H  0.52380217  0.70688130  0.34319781     0.07900
F1141       F  0.40897140  0.55949013  0.32446290    -0.19600
F1142       F  0.43933203  0.58970731  0.29790319    -0.15800
F1143       F  0.40103216  0.62925765  0.31109312    -0.19300
F1144       F  0.50609146  0.71526018  0.38640433    -0.22700
F1145       F  0.51437462  0.64685254  0.40142150    -0.24100
F1146       F  0.47558598  0.68657639  0.41320878    -0.18100
F1147       F  0.56314660  0.75856332  0.34074857    -0.20600
F1148       F  0.60702167  0.72516838  0.33936570    -0.21800
F1149       F  0.58661585  0.74334352  0.37431311    -0.19000
F1150       F  0.54208327  0.52050146  0.36648484    -0.19100
F1151       F  0.50852071  0.54118450  0.33999592    -0.22900
F1152       F  0.50191770  0.55700094  0.37843499    -0.24500
C1153       C  0.21816969  0.90081226  0.73913971    -0.11300
C1154       C  0.24878058  0.90641781  0.73980641     0.11300
C1155       C  0.26440137  0.91351779  0.71860519    -0.03100
C1156       C  0.24887161  0.91267640  0.69727940    -0.05800
C1157       C  0.21840591  0.90541259  0.69641042    -0.16600
C1158       C  0.20254578  0.90089395  0.71770283     0.02300
C1159       C  0.26422140  0.90130116  0.76268350     0.12300
C1160       C  0.29734459  0.92176562  0.71844546     0.62900
H1161       H  0.26062658  0.91679780  0.68083298     0.12300
C1162       C  0.16973022  0.89376243  0.71772341     0.55000
H1163       H  0.20672855  0.89485373  0.75555652     0.08100
C1164       C  0.26424481  0.93513257  0.78010638    -0.05700
C1165       C  0.27924397  0.92734321  0.80130352    -0.06500
C1166       C  0.29361227  0.88686034  0.80565068    -0.16100
C1167       C  0.29437006  0.85353652  0.78802128    -0.01600
C1168       C  0.27916014  0.86113536  0.76687396    -0.09200
C1169       C  0.24779242  0.97862764  0.77672116     0.65100
H1170       H  0.27852029  0.95199534  0.81525960     0.10500
C1171       C  0.31196888  0.81101956  0.79123446     0.63500
H1172       H  0.27869625  0.83561225  0.75336467     0.07900
F1173       F  0.15616643  0.92880422  0.70634432    -0.19600
F1174       F  0.15844117  0.89143105  0.74033259    -0.15800
F1175       F  0.16340560  0.85421796  0.70627328    -0.19300
F1176       F  0.31202871  0.88460139  0.72656844    -0.22700
F1177       F  0.30398542  0.95779024  0.73270677    -0.24100
F1178       F  0.30768947  0.93093567  0.69604962    -0.18100
F1179       F  0.29984887  0.78515500  0.80886859    -0.20600
F1180       F  0.34056551  0.82177532  0.79715934    -0.21800
F1181       F  0.31267083  0.78571280  0.77083238    -0.19000
F1182       F  0.25290350  0.00824951  0.79500218    -0.19100
F1183       F  0.21798010  0.97032936  0.77581293    -0.22900
F1184       F  0.25655246  0.99883606  0.75601912    -0.24500
C1185       C  0.03872877  0.88929494  0.66962938    -0.11300
C1186       C  0.01851277  0.87845890  0.65197432     0.11300
C1187       C  0.02866238  0.86362395  0.62975941    -0.03100
C1188       C  0.05903305  0.86217429  0.62562087    -0.05800
C1189       C  0.07956512  0.87557107  0.64275216    -0.16600
C1190       C  0.06922631  0.88746001  0.66552764     0.02300
C1191       C  0.98692647  0.88756993  0.65594485     0.12300
C1192       C  0.00745800  0.85126947  0.61009522     0.62900
H1193       H  0.06687490  0.85271871  0.60834399     0.12300
C1194       C  0.08994142  0.89808305  0.68553605     0.55000
H1195       H  0.03042287  0.90068203  0.68645696     0.08100
C1196       C  0.96727530  0.85490767  0.66455701    -0.05700
C1197       C  0.93691423  0.86191675  0.66168170    -0.06500
C1198       C  0.92610984  0.90152724  0.65173374    -0.16100
C1199       C  0.94593618  0.93649030  0.64600405    -0.01600
C1200       C  0.97617096  0.92868715  0.64821362    -0.09200
C1201       C  0.97850671  0.81324921  0.67666953     0.65100
H1202       H  0.92142706  0.83602410  0.66650784     0.10500
C1203       C  0.93547817  0.98067128  0.63598720     0.63500
H1204       H  0.99184118  0.95361330  0.64244253     0.07900
F1205       F  0.07604336  0.89481310  0.70715605    -0.19600
F1206       F  0.10059837  0.94102314  0.68302858    -0.15800
F1207       F  0.11291547  0.86815176  0.68548706    -0.19300
F1208       F  0.99172868  0.88843335  0.60329264    -0.22700
F1209       F  0.98812361  0.81875266  0.61768543    -0.24100
F1210       F  0.02193791  0.83486171  0.59048826    -0.18100
F1211       F  0.91773125  0.00201228  0.65221344    -0.20600
F1212       F  0.91991548  0.97331992  0.61546883    -0.21800
F1213       F  0.95859598  0.00901057  0.63075449    -0.19000
F1214       F  0.95575049  0.78606633  0.68414920    -0.19100
F1215       F  0.99481266  0.82544504  0.69616758    -0.22900
F1216       F  0.99608545  0.78887498  0.66158721    -0.24500
C1217       C  0.23378134  0.79316607  0.51216557    -0.11300
C1218       C  0.25572699  0.76186673  0.51713799     0.11300
C1219       C  0.26756329  0.75912118  0.54010631    -0.03100
C1220       C  0.25514348  0.78554889  0.55794510    -0.05800
C1221       C  0.23211591  0.81518988  0.55323176    -0.16600
C1222       C  0.22173737  0.82023486  0.52992160     0.02300
C1223       C  0.26773785  0.73538299  0.49736976     0.12300
C1224       C  0.29335458  0.72885174  0.54563309     0.62900
H1225       H  0.26285635  0.78250097  0.57590033     0.12300
C1226       C  0.19876305  0.85489598  0.52375331     0.55000
H1227       H  0.22609791  0.79603354  0.49419469     0.08100
C1228       C  0.25369593  0.69678427  0.48841254    -0.05700
C1229       C  0.26614599  0.67505452  0.46879498    -0.06500
C1230       C  0.29215765  0.69058001  0.45824359    -0.16100
C1231       C  0.30638985  0.72902004  0.46778982    -0.01600
C1232       C  0.29348621  0.75093637  0.48695567    -0.09200
C1233       C  0.22560073  0.67910871  0.49938668     0.65100
H1234       H  0.25540395  0.64607042  0.46130839     0.10500
C1235       C  0.33440063  0.74854410  0.45748827     0.63500
H1236       H  0.30332703  0.78100073  0.49405346     0.07900
F1237       F  0.17195984  0.84326001  0.53336475    -0.19600
F1238       F  0.19523846  0.85879748  0.49964661    -0.15800
F1239       F  0.20724490  0.89608358  0.53245412    -0.19300
F1240       F  0.31803426  0.74370223  0.53382464    -0.22700
F1241       F  0.28722845  0.68560186  0.53870538    -0.24100
F1242       F  0.29974878  0.72841902  0.56943811    -0.18100
F1243       F  0.33039650  0.75720388  0.43391147    -0.20600
F1244       F  0.35730683  0.71890514  0.46039572    -0.21800
F1245       F  0.34236850  0.78828624  0.46820803    -0.19000
F1246       F  0.21612001  0.64030172  0.48852552    -0.19100
F1247       F  0.20360431  0.71053089  0.49737971    -0.22900
F1248       F  0.23015765  0.66993543  0.52293629    -0.24500
C1249       C  0.28810390  0.11016973  0.23778483    -0.11300
C1250       C  0.26018672  0.09055094  0.24019793     0.11300
C1251       C  0.24615251  0.07203926  0.22024923    -0.03100
C1252       C  0.26055526  0.07393494  0.19836358    -0.05800
C1253       C  0.28808226  0.09446272  0.19575768    -0.16600
C1254       C  0.30228888  0.11269183  0.21567915     0.02300
C1255       C  0.24530917  0.09141802  0.26353169     0.12300
C1256       C  0.21547550  0.05225412  0.22189267     0.62900
H1257       H  0.24977180  0.06112532  0.18275780     0.12300
C1258       C  0.33194604  0.13519525  0.21332026     0.55000
H1259       H  0.29839012  0.12429948  0.25327789     0.08100
C1260       C  0.24973752  0.05771093  0.28059961    -0.05700
C1261       C  0.23420642  0.06021502  0.30202309    -0.06500
C1262       C  0.21458354  0.09511436  0.30671114    -0.16100
C1263       C  0.20913051  0.12754061  0.28922357    -0.01600
C1264       C  0.22498198  0.12554298  0.26796163    -0.09200
C1265       C  0.27166635  0.02038503  0.27664782     0.65100
H1266       H  0.23839072  0.03611243  0.31580876     0.10500
C1267       C  0.18594125  0.16302109  0.29286462     0.63500
H1268       H  0.22141731  0.15038195  0.25443963     0.07900
F1269       F  0.34148574  0.15274608  0.23453035    -0.19600
F1270       F  0.33031562  0.16962038  0.19718832    -0.15800
F1271       F  0.35237980  0.10438773  0.20564024    -0.19300
F1272       F  0.19551581  0.08554822  0.22698150    -0.22700
F1273       F  0.21415260  0.02022081  0.23932265    -0.24100
F1274       F  0.20717290  0.03228256  0.20103183    -0.18100
F1275       F  0.18374941  0.19128482  0.27370092    -0.20600
F1276       F  0.19267435  0.18838711  0.31235828    -0.21800
F1277       F  0.15898580  0.14278836  0.29634346    -0.19000
F1278       F  0.26975612  0.98828470  0.29405192    -0.19100
F1279       F  0.29976412  0.03782253  0.27669182    -0.22900
F1280       F  0.26668242  0.99947768  0.25533279    -0.24500
C1281       C  0.10736674  0.05456267  0.48452238    -0.11300
C1282       C  0.12027855  0.01322340  0.48925201     0.11300
C1283       C  0.13276798  0.98834473  0.47058158    -0.03100
C1284       C  0.13566987  0.00866280  0.44837674    -0.05800
C1285       C  0.12637520  0.05264335  0.44441819    -0.16600
C1286       C  0.10970068  0.07451509  0.46218530     0.02300
C1287       C  0.12332552  0.99883987  0.51416806     0.12300
C1288       C  0.14368317  0.94109636  0.47438367     0.62900
H1289       H  0.14658523  0.99110528  0.43430742     0.12300
C1290       C  0.09436874  0.11864703  0.45787429     0.55000
H1291       H  0.09679517  0.07227508  0.49883039     0.08100
C1292       C  0.14730767  0.01343834  0.52804566    -0.05700
C1293       C  0.15159331  0.99411746  0.55034773    -0.06500
C1294       C  0.13265077  0.96118079  0.55909641    -0.16100
C1295       C  0.10737558  0.94917931  0.54593677    -0.01600
C1296       C  0.10309366  0.96843687  0.52358062    -0.09200
C1297       C  0.16872136  0.04831366  0.51890973     0.65100
H1298       H  0.17075065  0.00271867  0.56055454     0.10500
C1299       C  0.08509714  0.91608090  0.55544860     0.63500
H1300       H  0.08455386  0.95854398  0.51285343     0.07900
F1301       F  0.11425430  0.15335498  0.45953537    -0.19600
F1302       F  0.07234379  0.12588501  0.47423853    -0.15800
F1303       F  0.08159803  0.11874767  0.43578116    -0.19300
F1304       F  0.12056811  0.91429346  0.48142797    -0.22700
F1305       F  0.16514100  0.94068101  0.49154755    -0.24100
F1306       F  0.15544539  0.92296745  0.45404644    -0.18100
F1307       F  0.05992159  0.91498651  0.54184435    -0.20600
F1308       F  0.07714930  0.92802599  0.57810045    -0.21800
F1309       F  0.09694727  0.87369316  0.55567435    -0.19000
F1310       F  0.19062055  0.05740533  0.53498939    -0.19100
F1311       F  0.15404060  0.08770327  0.51446615    -0.22900
F1312       F  0.18184506  0.03353166  0.49838680    -0.24500
C1313       C  0.27108450  0.83909969  0.36510626    -0.11300
C1314       C  0.28669834  0.86862261  0.37961018     0.11300
C1315       C  0.31170734  0.85343790  0.39180228    -0.03100
C1316       C  0.32072300  0.80906455  0.38851761    -0.05800
C1317       C  0.30373606  0.77797923  0.37573337    -0.16600
C1318       C  0.27879774  0.79373763  0.36311088     0.02300
C1319       C  0.27498827  0.91447376  0.38270633     0.12300
C1320       C  0.32766687  0.88305277  0.40938499     0.62900
H1321       H  0.34022296  0.79771900  0.39744907     0.12300
C1322       C  0.25983116  0.76345110  0.34790331     0.55000
H1323       H  0.25180388  0.85161239  0.35618035     0.08100
C1324       C  0.28051772  0.94877857  0.36621076    -0.05700
C1325       C  0.26593538  0.98991265  0.36890094    -0.06500
C1326       C  0.24533409  0.99683955  0.38698587    -0.16100
C1327       C  0.24107759  0.96312866  0.40416361    -0.01600
C1328       C  0.25601239  0.92239039  0.40166405    -0.09200
C1329       C  0.30035447  0.94091136  0.34512624     0.65100
H1330       H  0.26887045  0.01580472  0.35582723     0.10500
C1331       C  0.21986765  0.96903808  0.42446768     0.63500
H1332       H  0.25190300  0.89546725  0.41394291     0.07900
F1333       F  0.24110099  0.78763807  0.33364230    -0.19600
F1334       F  0.24274436  0.73622594  0.36202290    -0.15800
F1335       F  0.27734822  0.73760697  0.33341144    -0.19300
F1336       F  0.30894791  0.89369858  0.42770600    -0.22700
F1337       F  0.33696913  0.92191567  0.39866601    -0.24100
F1338       F  0.35199478  0.86214151  0.41885581    -0.18100
F1339       F  0.22430893  0.93747567  0.44187081    -0.20600
F1340       F  0.19156395  0.96439231  0.41622900    -0.21800
F1341       F  0.22334367  0.01078415  0.43452064    -0.19000
F1342       F  0.30501360  0.97967221  0.33247217    -0.19100
F1343       F  0.28766012  0.90970813  0.33034049    -0.22900
F1344       F  0.32737053  0.92530744  0.35237837    -0.24500
C1345       C  0.21966217  0.34848461  0.36127987    -0.11300
C1346       C  0.21582812  0.36945622  0.38316621     0.11300
C1347       C  0.19940376  0.34792119  0.40098382    -0.03100
C1348       C  0.18933175  0.30420220  0.39686415    -0.05800
C1349       C  0.19531536  0.28175362  0.37567061    -0.16600
C1350       C  0.20987032  0.30456898  0.35727237     0.02300
C1351       C  0.23162317  0.41209706  0.38746870     0.12300
C1352       C  0.19321542  0.37063978  0.42437554     0.62900
H1353       H  0.17802280  0.28624081  0.41071146     0.12300
C1354       C  0.21433467  0.28297934  0.33345424     0.55000
H1355       H  0.23160866  0.36620450  0.34769861     0.08100
C1356       C  0.26205943  0.41262581  0.39238600    -0.05700
C1357       C  0.27654243  0.45394914  0.39391853    -0.06500
C1358       C  0.26151840  0.49454215  0.39126009    -0.16100
C1359       C  0.23055475  0.49393576  0.38843470    -0.01600
C1360       C  0.21619857  0.45241730  0.38606905    -0.09200
C1361       C  0.27925230  0.36963447  0.39559497     0.65100
H1362       H  0.30008787  0.45485815  0.39648308     0.10500
C1363       C  0.21282520  0.53664042  0.38727864     0.63500
H1364       H  0.19284906  0.45102926  0.38264718     0.07900
F1365       F  0.23159597  0.24535484  0.33559281    -0.19600
F1366       F  0.22791567  0.31151653  0.31768595    -0.15800
F1367       F  0.18725925  0.27138466  0.32435254    -0.19300
F1368       F  0.17552073  0.40735307  0.42070729    -0.22700
F1369       F  0.21912539  0.38443208  0.43474679    -0.24100
F1370       F  0.17900173  0.34243463  0.43995464    -0.18100
F1371       F  0.22237180  0.56259052  0.36868731    -0.20600
F1372       F  0.21608250  0.56010924  0.40809118    -0.21800
F1373       F  0.18319067  0.52825746  0.38418227    -0.19000
F1374       F  0.30772940  0.37776312  0.40291587    -0.19100
F1375       F  0.28046602  0.34646529  0.37457197    -0.22900
F1376       F  0.26584352  0.34320586  0.41239809    -0.24500
C1377       C  0.27938404  0.38635998  0.73310970    -0.11300
C1378       C  0.24856455  0.38879843  0.73342359     0.11300
C1379       C  0.23325348  0.39640473  0.71219668    -0.03100
C1380       C  0.24938270  0.40003923  0.69118423    -0.05800
C1381       C  0.28020914  0.39645728  0.69058387    -0.16600
C1382       C  0.29556469  0.38958901  0.71193888     0.02300
C1383       C  0.23288192  0.38400072  0.75631370     0.12300
C1384       C  0.19999501  0.40054911  0.71170740     0.62900
H1385       H  0.23785273  0.40570988  0.67481082     0.12300
C1386       C  0.32862003  0.38446137  0.71233207     0.55000
H1387       H  0.29065619  0.38144357  0.74967220     0.08100
C1388       C  0.22809582  0.34192387  0.76694405    -0.05700
C1389       C  0.21444224  0.34035107  0.78915248    -0.06500
C1390       C  0.20512231  0.37914737  0.80092189    -0.16100
C1391       C  0.20844155  0.42111303  0.78957361    -0.01600
C1392       C  0.22281690  0.42269900  0.76759991    -0.09200
C1393       C  0.23754467  0.29887058  0.75500789     0.65100
H1394       H  0.21169655  0.30858453  0.79791750     0.10500
C1395       C  0.19785669  0.46426567  0.80074604     0.63500
H1396       H  0.22674901  0.45444387  0.75907730     0.07900
F1397       F  0.33706242  0.35167173  0.69657786    -0.19600
F1398       F  0.33873891  0.37250890  0.73440274    -0.15800
F1399       F  0.34162084  0.42447877  0.70619975    -0.19300
F1400       F  0.19144770  0.43813024  0.72401684    -0.22700
F1401       F  0.18719021  0.36341492  0.72185919    -0.24100
F1402       F  0.18937088  0.40420604  0.68897710    -0.18100
F1403       F  0.20371568  0.50093894  0.78670211    -0.20600
F1404       F  0.21164747  0.47087648  0.82214026    -0.21800
F1405       F  0.16781680  0.46223647  0.80409314    -0.19000
F1406       F  0.23009747  0.26170311  0.76819202    -0.19100
F1407       F  0.26760783  0.29865075  0.75186820    -0.22900
F1408       F  0.22403224  0.29506715  0.73333311    -0.24500
C1409       C  0.27981079  0.16380472  0.64421887    -0.11300
C1410       C  0.29400289  0.13347455  0.62923259     0.11300
C1411       C  0.31817022  0.14796104  0.61552703    -0.03100
C1412       C  0.32656148  0.19316244  0.61665189    -0.05800
C1413       C  0.31070795  0.22436395  0.63009245    -0.16600
C1414       C  0.28796531  0.20908976  0.64512245     0.02300
C1415       C  0.28080199  0.08835241  0.62637292     0.12300
C1416       C  0.33423735  0.11624674  0.59909238     0.62900
H1417       H  0.34413311  0.20515658  0.60548177     0.12300
C1418       C  0.27242758  0.24018380  0.66215955     0.55000
H1419       H  0.26127437  0.15212093  0.65446175     0.08100
C1420       C  0.28436433  0.05395133  0.64316913    -0.05700
C1421       C  0.26885771  0.01354882  0.64001813    -0.06500
C1422       C  0.24924865  0.00756247  0.62117473    -0.19300
C1423       C  0.24657669  0.04150682  0.60405124    -0.01600
C1424       C  0.26224405  0.08151194  0.60706582    -0.09200
C1425       C  0.30327022  0.06083406  0.66484890     0.65100
H1426       H  0.27044532  0.98744621  0.65311492     0.10500
C1427       C  0.22610505  0.03696187  0.58326927     0.63500
H1428       H  0.25923798  0.10865118  0.59472232     0.07900
F1429       F  0.29282366  0.26629939  0.67385977    -0.19600
F1430       F  0.25665071  0.21663236  0.67888764    -0.15800
F1431       F  0.25308801  0.26733420  0.65017240    -0.19300
F1432       F  0.31547331  0.10123507  0.58169413    -0.22700
F1433       F  0.34458887  0.08008513  0.61161197    -0.24100
F1434       F  0.35792350  0.13665356  0.58823146    -0.18100
F1435       F  0.19786089  0.04676649  0.59046685    -0.20600
F1436       F  0.22701814  0.99411478  0.57418436    -0.21800
F1437       F  0.23398388  0.06605416  0.56544930    -0.19000
F1438       F  0.30579328  0.02213347  0.67791952    -0.19100
F1439       F  0.29092389  0.09321128  0.67906506    -0.22900
F1440       F  0.33114636  0.07427813  0.65834256    -0.24500
C1441       C  0.21936952  0.65685844  0.64026656    -0.11300
C1442       C  0.21332735  0.63366956  0.61929930     0.11300
C1443       C  0.19563138  0.65405393  0.60190160    -0.03100
C1444       C  0.18659929  0.69848266  0.60536933    -0.05800
C1445       C  0.19548731  0.72325591  0.62514581    -0.16600
C1446       C  0.21164777  0.70201612  0.64317033     0.02300
C1447       C  0.22903453  0.59075757  0.61503424     0.12300
C1448       C  0.18713147  0.62963406  0.57946790     0.62900
H1449       H  0.17408730  0.71524919  0.59183014     0.12300
C1450       C  0.22174650  0.72728456  0.66487231     0.55000
H1451       H  0.23239424  0.64030571  0.65356538     0.08100
C1452       C  0.25953614  0.59017443  0.61033132    -0.05700
C1453       C  0.27394456  0.54890814  0.60897863    -0.06500
C1454       C  0.25895668  0.50788139  0.61094956    -0.16100
C1455       C  0.22781262  0.50865557  0.61325553    -0.01600
C1456       C  0.21357766  0.55025699  0.61605006    -0.09200
C1457       C  0.27695545  0.63301686  0.60668770     0.65100
H1458       H  0.29752868  0.54870583  0.60702926     0.10500
C1459       C  0.20951156  0.46630693  0.61304359     0.63500
H1460       H  0.19022768  0.55152059  0.61942145     0.07900
F1461       F  0.24389579  0.75674437  0.65885841    -0.19600
F1462       F  0.23249624  0.69878470  0.68194270    -0.15800
F1463       F  0.19852897  0.75074502  0.67448916    -0.19300
F1464       F  0.16893836  0.59417594  0.58491186    -0.22700
F1465       F  0.21190528  0.61385283  0.56814692    -0.24100
F1466       F  0.17231383  0.65709367  0.56394585    -0.18100
F1467       F  0.17980616  0.47519817  0.61505737    -0.20600
F1468       F  0.21739637  0.43912331  0.63160963    -0.21800
F1469       F  0.21382532  0.44399934  0.59199168    -0.19000
F1470       F  0.30540821  0.62459210  0.59938954    -0.19100
F1471       F  0.27844827  0.65702873  0.62742135    -0.22900
F1472       F  0.26360020  0.65873154  0.58961242    -0.24500
C1473       C  0.40211113  0.52921464  0.47673071    -0.11300
C1474       C  0.37855957  0.50440686  0.48589882     0.11300
C1475       C  0.35334530  0.49685194  0.47187529    -0.03100
C1476       C  0.35270464  0.51427664  0.44894992    -0.05800
C1477       C  0.37545415  0.54124098  0.44016874    -0.16600
C1478       C  0.40091608  0.54830415  0.45406263     0.02300
C1479       C  0.37994965  0.48898678  0.51075270     0.12300
C1480       C  0.32638486  0.47303453  0.48153118     0.62900
H1481       H  0.33322038  0.50982042  0.43830504     0.12300
C1482       C  0.42649374  0.57630112  0.44530009     0.55000
H1483       H  0.42099270  0.53501768  0.48788382     0.08100
C1484       C  0.39283407  0.44796012  0.51707439    -0.05700
C1485       C  0.39023557  0.43331161  0.54052357    -0.06500
C1486       C  0.37424651  0.45740796  0.55765318    -0.16100
C1487       C  0.36288503  0.50001032  0.55137969    -0.01600
C1488       C  0.36661702  0.51532361  0.52809625    -0.09200
C1489       C  0.40833305  0.41912660  0.49889747     0.65100
H1490       H  0.39947065  0.40135318  0.54532193     0.10500
C1491       C  0.34486481  0.52785146  0.56830972     0.63500
H1492       H  0.35750079  0.54707357  0.52275094     0.07900
F1493       F  0.45129639  0.57007972  0.45894721    -0.19600
F1494       F  0.41920405  0.62101543  0.44615958    -0.15800
F1495       F  0.43343161  0.56466383  0.42238492    -0.19300
F1496       F  0.31442085  0.49783026  0.49966901    -0.22700
F1497       F  0.33381099  0.43134907  0.48991931    -0.24100
F1498       F  0.30496044  0.46739660  0.46450596    -0.18100
F1499       F  0.36138395  0.53840896  0.58795294    -0.20600
F1500       F  0.32022920  0.50396203  0.57481653    -0.21800
F1501       F  0.33557038  0.56747858  0.55831579    -0.19000
F1502       F  0.41981292  0.38076623  0.50877058    -0.19100
F1503       F  0.43116161  0.44278793  0.48882033    -0.22900
F1504       F  0.38888059  0.40653595  0.48144908    -0.24500
C1505       C  0.28531724  0.24663534  0.51762372    -0.11300
C1506       C  0.27101484  0.27435835  0.50165016     0.11300
C1507       C  0.26714461  0.32013316  0.50677041    -0.03100
C1508       C  0.27697449  0.33648519  0.52860438    -0.05800
C1509       C  0.29043947  0.30830927  0.54505214    -0.16600
C1510       C  0.29502139  0.26254770  0.53942778     0.02300
C1511       C  0.25690418  0.25216907  0.48145729     0.12300
C1512       C  0.25269697  0.35116574  0.48924606     0.62900
H1513       H  0.27409098  0.37135643  0.53307036     0.12300
C1514       C  0.30801328  0.22957618  0.55682967     0.55000
H1515       H  0.28769864  0.21168436  0.51312065     0.08100
C1516       C  0.27215647  0.24001597  0.46071107    -0.05700
C1517       C  0.25763815  0.21325231  0.44406496    -0.06500
C1518       C  0.22870361  0.19823059  0.44758501    -0.16100
C1519       C  0.21388315  0.20944037  0.46878776    -0.01600
C1520       C  0.22834857  0.23647269  0.48526712    -0.09200
C1521       C  0.30342704  0.25413953  0.45510822     0.65100
H1522       H  0.26886785  0.20496773  0.42780575     0.10500
C1523       C  0.18323439  0.19251304  0.47448793     0.63500
H1524       H  0.21755025  0.24525925  0.50162964     0.07900
F1525       F  0.33708228  0.23977728  0.56124282    -0.19600
F1526       F  0.30708517  0.18615908  0.54849394    -0.15800
F1527       F  0.29207264  0.23104163  0.57750184    -0.19300
F1528       F  0.22388465  0.33833014  0.48572039    -0.22700
F1529       F  0.26758903  0.34941869  0.46804776    -0.24100
F1530       F  0.25287233  0.39497575  0.49701357    -0.18100
F1531       F  0.17632430  0.19851427  0.49802641    -0.20600
F1532       F  0.18123341  0.14736126  0.46965676    -0.21800
F1533       F  0.16278843  0.21551583  0.46131184    -0.19000
F1534       F  0.30372835  0.27739784  0.43410697    -0.19100
F1535       F  0.32068963  0.21653037  0.45264926    -0.22900
F1536       F  0.31584588  0.28106082  0.47217972    -0.24500
C1537       C  0.71731392  0.12509250  0.24384022    -0.11300
C1538       C  0.74806193  0.12351045  0.24553869     0.11300
C1539       C  0.76507653  0.11582375  0.22517012    -0.03100
C1540       C  0.75061425  0.11022047  0.20360159    -0.05800
C1541       C  0.71978788  0.11168352  0.20159380    -0.16600
C1542       C  0.70273391  0.11970385  0.22208388     0.02300
C1543       C  0.76191654  0.12692201  0.26910109     0.12300
C1544       C  0.79838862  0.11267196  0.22624146     0.62900
H1545       H  0.76355929  0.10409589  0.18798125     0.12300
C1546       C  0.66956503  0.12371622  0.22104079     0.55000
H1547       H  0.70482280  0.13037055  0.25982279     0.08100
C1548       C  0.76797946  0.16836634  0.28001457    -0.05700
C1549       C  0.78145415  0.16835461  0.30228269    -0.06500
C1550       C  0.78870117  0.12853289  0.31395879    -0.16100
C1551       C  0.78266175  0.08702426  0.30286224    -0.01600
C1552       C  0.76922776  0.08713810  0.28057649    -0.09200
C1553       C  0.75985494  0.21229658  0.26840995     0.65100
H1554       H  0.78600489  0.19966995  0.31103477     0.10500
C1555       C  0.78922223  0.04274061  0.31468368     0.63500
H1556       H  0.76411745  0.05596260  0.27182438     0.07900
F1557       F  0.66174392  0.15546881  0.20455733    -0.19600
F1558       F  0.65781164  0.13644171  0.24249535    -0.15800
F1559       F  0.65737805  0.08303104  0.21495991    -0.19300
F1560       F  0.80642820  0.07577841  0.23925007    -0.22700
F1561       F  0.81003326  0.15043933  0.23664265    -0.24100
F1562       F  0.81075433  0.10861477  0.20407281    -0.18100
F1563       F  0.77970162  0.00683638  0.30133694    -0.20600
F1564       F  0.77521336  0.04069071  0.33625094    -0.21800
F1565       F  0.81914596  0.03832805  0.31784664    -0.19000
F1566       F  0.76759927  0.24858452  0.28219630    -0.19100
F1567       F  0.72991127  0.21394137  0.26472867    -0.22900
F1568       F  0.77405050  0.21640148  0.24702443    -0.24500
C1569       C  0.77690238  0.37488166  0.36587315    -0.11300
C1570       C  0.79618492  0.40540284  0.37638605     0.11300
C1571       C  0.82363579  0.39004385  0.38470647    -0.03100
C1572       C  0.82991821  0.34385426  0.38366701    -0.05800
C1573       C  0.80948880  0.31244870  0.37493246    -0.16600
C1574       C  0.78319476  0.32892238  0.36446993     0.02300
C1575       C  0.78527555  0.45187260  0.38048856     0.12300
C1576       C  0.84569108  0.42205634  0.39553777     0.62900
H1577       H  0.85010650  0.33173390  0.39133402     0.12300
C1578       C  0.76127792  0.29875165  0.35206566     0.55000
H1579       H  0.75598947  0.38719623  0.35962138     0.08100
C1580       C  0.78165045  0.48315890  0.36198039    -0.05700
C1581       C  0.76603628  0.52280179  0.36652617    -0.06500
C1582       C  0.75422679  0.53218622  0.38880170    -0.16100
C1583       C  0.76011676  0.50309874  0.40774052    -0.01600
C1584       C  0.77512679  0.46286963  0.40317163    -0.09200
C1585       C  0.79369719  0.47465319  0.33744362     0.65100
H1586       H  0.76157199  0.54588740  0.35232611     0.10500
C1587       C  0.75090837  0.51496222  0.43259765     0.63500
H1588       H  0.77805900  0.43881679  0.41716089     0.07900
F1589       F  0.77592750  0.26908418  0.33760549    -0.19600
F1590       F  0.74218015  0.32292113  0.33809888    -0.15800
F1591       F  0.74470837  0.27561851  0.36840942    -0.19300
F1592       F  0.83528539  0.43747648  0.41689508    -0.22700
F1593       F  0.85028640  0.45795415  0.38073716    -0.24100
F1594       F  0.87251010  0.40174270  0.39934784    -0.18100
F1595       F  0.76173971  0.48488248  0.44886714    -0.20600
F1596       F  0.72074271  0.51518284  0.43430719    -0.21800
F1597       F  0.76147652  0.55688980  0.43830504    -0.19000
F1598       F  0.78985312  0.51115861  0.32284972    -0.19100
F1599       F  0.77958754  0.43863605  0.32730729    -0.22900
F1600       F  0.82340744  0.46592681  0.33865455    -0.24500
C1601       C  0.75077041  0.94803075  0.40214824    -0.11300
C1602       C  0.72733117  0.94570569  0.38621756     0.11300
C1603       C  0.71671601  0.98560401  0.37597982    -0.03100
C1604       C  0.73197975  0.02593033  0.38022962    -0.05800
C1605       C  0.75694269  0.02758576  0.39476567    -0.16600
C1606       C  0.76527931  0.98846027  0.40708556     0.02300
C1607       C  0.71425406  0.90086387  0.38127064     0.12300
C1608       C  0.68980043  0.98536697  0.36028964     0.62900
H1609       H  0.72545391  0.05604264  0.37115998     0.12300
C1610       C  0.78975914  0.98796312  0.42509476     0.55000
H1611       H  0.75799436  0.91761736  0.41064260     0.08100
C1612       C  0.72820676  0.86949788  0.36632333    -0.05700
C1613       C  0.71730478  0.82547225  0.36547957    -0.06500
C1614       C  0.69300422  0.81167167  0.37899480    -0.16100
C1615       C  0.67761235  0.84423091  0.39241144    -0.01600
C1616       C  0.68890336  0.88810249  0.39357538    -0.09200
C1617       C  0.75504400  0.88206291  0.35183755     0.65100
H1618       H  0.72871874  0.80068261  0.35507467     0.10500
C1619       C  0.65018068  0.83269998  0.40632297     0.63500
H1620       H  0.67867916  0.91255017  0.40495327     0.07900
F1621       F  0.81547242  0.97450387  0.41431631    -0.19600
F1622       F  0.78313987  0.95845320  0.44307406    -0.15800
F1623       F  0.79377699  0.02954180  0.43520869    -0.19300
F1624       F  0.66567951  0.97107221  0.37299038    -0.22700
F1625       F  0.69410334  0.95699278  0.34141328    -0.24100
F1626       F  0.68365744  0.02742468  0.35159077    -0.18100
F1627       F  0.65655930  0.80084744  0.42311982    -0.20600
F1628       F  0.62886495  0.81659498  0.39120849    -0.21800
F1629       F  0.63871324  0.86954185  0.41778935    -0.19000
F1630       F  0.76409866  0.84735208  0.33746812    -0.19100
F1631       F  0.77810364  0.89311827  0.36651409    -0.22900
F1632       F  0.74866041  0.91814524  0.33763950    -0.24500
C1633       C  0.84726122  0.02182331  0.53177205    -0.11300
C1634       C  0.87477907  0.01983415  0.52084121     0.11300
C1635       C  0.89876799  0.00055857  0.53299840    -0.03100
C1636       C  0.89396239  0.98262233  0.55567560    -0.05800
C1637       C  0.86610938  0.98354682  0.56628104    -0.16600
C1638       C  0.84225021  0.00274000  0.55396879     0.02300
C1639       C  0.87698312  0.03758514  0.49641063     0.12300
C1640       C  0.92897281  0.99785133  0.52180766     0.62900
H1641       H  0.91174273  0.96679492  0.56510181     0.12300
C1642       C  0.81128555  0.00107567  0.56373666     0.55000
H1643       H  0.82936441  0.03725172  0.52228582     0.08100
C1644       C  0.86429522  0.01489617  0.47702350    -0.05700
C1645       C  0.86242739  0.03704528  0.45521131    -0.06500
C1646       C  0.87272724  0.08097215  0.45220845    -0.16100
C1647       C  0.88841891  0.10144343  0.47100729    -0.01600
C1648       C  0.88941904  0.07985840  0.49300061    -0.09200
C1649       C  0.85163074  0.96819290  0.47960720     0.65100
H1650       H  0.85136841  0.02091608  0.44069036     0.10500
C1651       C  0.90463764  0.14538540  0.46802752     0.63500
H1652       H  0.89908817  0.09668960  0.50799141     0.07900
F1653       F  0.79099281  0.01899321  0.54831917    -0.19600
F1654       F  0.81014338  0.02518968  0.58435593    -0.15800
F1655       F  0.80329159  0.95732494  0.56813985    -0.19300
F1656       F  0.93959831  0.04025383  0.51747711    -0.22700
F1657       F  0.92734505  0.97462997  0.50080916    -0.24100
F1658       F  0.94885960  0.97628946  0.53622942    -0.18100
F1659       F  0.88504759  0.18051344  0.46831508    -0.20600
F1660       F  0.91996559  0.14528469  0.44698497    -0.21800
F1661       F  0.92472676  0.15219105  0.48594935    -0.19000
F1662       F  0.84539400  0.94919831  0.45797176    -0.19100
F1663       F  0.82594602  0.96970916  0.49253920    -0.22900
F1664       F  0.87147500  0.94080354  0.49091845    -0.24500
C1665       C  0.96649020  0.14116917  0.33836752    -0.11300
C1666       C  0.98694574  0.14503528  0.35674924     0.11300
C1667       C  0.97705444  0.15508434  0.37978014    -0.03100
C1668       C  0.94680240  0.15953153  0.38378472    -0.05800
C1669       C  0.92604974  0.15358857  0.36576595    -0.16600
C1670       C  0.93597486  0.14484422  0.34251682     0.02300
C1671       C  0.01872364  0.13789899  0.35195078     0.12300
C1672       C  0.99837031  0.16030853  0.40021295     0.62900
H1673       H  0.93899649  0.16618505  0.40143851     0.12300
C1674       C  0.91464426  0.13974065  0.32220817     0.55000
H1675       H  0.97461025  0.13407080  0.32084714     0.08100
C1676       C  0.03160837  0.09500808  0.35313551    -0.05700
C1677       C  0.06242568  0.09177677  0.35466204    -0.06500
C1678       C  0.08035423  0.13001360  0.35462161    -0.16100
C1679       C  0.06751588  0.17204601  0.34978701    -0.01600
C1680       C  0.03676808  0.17539838  0.34900785    -0.09200
C1681       C  0.01275421  0.05320084  0.35382477     0.65100
H1682       H  0.07251200  0.05965000  0.35779225     0.10500
C1683       C  0.08522415  0.21422402  0.34574322     0.63500
H1684       H  0.02669877  0.20793559  0.34712165     0.07900
F1685       F  0.89954530  0.09990000  0.32432053    -0.19600
F1686       F  0.92896347  0.13971212  0.30070152    -0.15800
F1687       F  0.89490002  0.17473295  0.32225030    -0.19300
F1688       F  0.01717045  0.19563236  0.39598021    -0.22700
F1689       F  0.01461881  0.12178176  0.40292781    -0.24100
F1690       F  0.98400075  0.16856164  0.42125058    -0.18100
F1691       F  0.07525964  0.23520582  0.32561374    -0.20600
F1692       F  0.11481539  0.20588797  0.34264670    -0.21800
F1693       F  0.08160481  0.24266482  0.36469783    -0.19000
F1694       F  0.02961206  0.01485884  0.35434403    -0.19100
F1695       F  0.99527667  0.05145270  0.33396995    -0.22900
F1696       F  0.99502737  0.05351241  0.37358556    -0.24500
C1697       C  0.72217190  0.38449466  0.74460871    -0.11300
C1698       C  0.73730518  0.42215388  0.75279604     0.11300
C1699       C  0.73860353  0.46078387  0.73849683    -0.03100
C1700       C  0.72539342  0.45964004  0.71603409    -0.05800
C1701       C  0.71172099  0.42093012  0.70728612    -0.16600
C1702       C  0.70860111  0.38361531  0.72240334     0.02300
C1703       C  0.75183845  0.41960401  0.77627842     0.12300
C1704       C  0.75444240  0.50259523  0.74672411     0.62900
H1705       H  0.72680527  0.48851047  0.70466709     0.12300
C1706       C  0.69034856  0.34284581  0.71669142     0.55000
H1707       H  0.72085114  0.35526855  0.75579516     0.08100
C1708       C  0.73567238  0.42200378  0.79756473    -0.05700
C1709       C  0.75074410  0.41716275  0.81902169    -0.06500
C1710       C  0.78126766  0.41081576  0.81988197    -0.16100
C1711       C  0.79749754  0.40916154  0.79871105    -0.01600
C1712       C  0.78236002  0.41278895  0.77713405    -0.09200
C1713       C  0.70269729  0.42973011  0.79767287     0.65100
H1714       H  0.73872157  0.41802467  0.83547043     0.10500
C1715       C  0.83049475  0.40313027  0.79903374     0.63500
H1716       H  0.79424637  0.41035506  0.76068146     0.07900
F1717       F  0.67697239  0.34518488  0.69492568    -0.19600
F1718       F  0.66854277  0.33824087  0.73347244    -0.15800
F1719       F  0.70807360  0.30558613  0.71751454    -0.19300
F1720       F  0.78400570  0.49386038  0.74941941    -0.22700
F1721       F  0.74303492  0.51661845  0.76803235    -0.24100
F1722       F  0.75161509  0.53718516  0.73078167    -0.18100
F1723       F  0.84190008  0.39883060  0.77655705    -0.20600
F1724       F  0.83769341  0.36523772  0.81161741    -0.21800
F1725       F  0.84339825  0.43986714  0.80955591    -0.19000
F1726       F  0.69172123  0.43361322  0.82030837    -0.19100
F1727       F  0.68843955  0.39446008  0.78693381    -0.22900
F1728       F  0.69621643  0.46860786  0.78573452    -0.24500
C1729       C  0.63412480  0.51089546  0.47774867    -0.11300
C1730       C  0.62583916  0.53820771  0.49667101     0.11300
C1731       C  0.61776653  0.58290964  0.49229829    -0.03100
C1732       C  0.62134472  0.60005387  0.46946107    -0.05800
C1733       C  0.63185041  0.57378611  0.45061803    -0.16600
C1734       C  0.63558975  0.52711735  0.45447041     0.02300
C1735       C  0.62848923  0.52046326  0.52105673     0.12300
C1736       C  0.60597592  0.61273882  0.51177205     0.62900
H1737       H  0.61687021  0.63502973  0.46647258     0.12300
C1738       C  0.63994489  0.49389413  0.43452098     0.55000
H1739       H  0.64007971  0.47667461  0.48145695     0.08100
C1740       C  0.60909283  0.48809992  0.53050829    -0.05700
C1741       C  0.61443609  0.47177444  0.55335808    -0.06500
C1742       C  0.63825018  0.48691091  0.56694751    -0.16100
C1743       C  0.65719071  0.52001872  0.55760969    -0.01600
C1744       C  0.65210870  0.53578017  0.53467423    -0.09200
C1745       C  0.58310539  0.47052582  0.51653796     0.65100
H1746       H  0.60049211  0.44590236  0.56060309     0.10500
C1747       C  0.68352905  0.53704190  0.57124271     0.63500
H1748       H  0.66697146  0.55983184  0.52688031     0.07900
F1749       F  0.61745149  0.49846765  0.41838240    -0.19600
F1750       F  0.63950837  0.45025861  0.44250182    -0.15800
F1751       F  0.66651318  0.50071435  0.42346377    -0.19300
F1752       F  0.62787074  0.62229798  0.52780520    -0.22700
F1753       F  0.58309950  0.59154943  0.52324114    -0.24100
F1754       F  0.59549791  0.65273324  0.50304123    -0.18100
F1755       F  0.70183975  0.50180739  0.57668863    -0.20600
F1756       F  0.67422198  0.55757460  0.59173231    -0.21800
F1757       F  0.69960483  0.56790921  0.55848063    -0.19000
F1758       F  0.56580492  0.44203112  0.52980727    -0.19100
F1759       F  0.59279621  0.44716579  0.49706335    -0.22900
F1760       F  0.56577646  0.50563493  0.50922135    -0.24500
C1761       C  0.79138839  0.57344970  0.65065968    -0.11300
C1762       C  0.78299887  0.61051073  0.63725007     0.11300
C1763       C  0.76324578  0.60444401  0.61829730    -0.03100
C1764       C  0.74856286  0.56325865  0.61605973    -0.05800
C1765       C  0.75476261  0.52696572  0.63088830    -0.16600
C1766       C  0.77826584  0.53110815  0.64724567     0.02300
C1767       C  0.79452724  0.65572252  0.64329039     0.12300
C1768       C  0.75800000  0.64134548  0.60044194     0.62900
H1769       H  0.73163316  0.55941837  0.60293150     0.12300
C1770       C  0.78911714  0.49152274  0.66133654     0.55000
H1771       H  0.80782476  0.57825484  0.66417793     0.08100
C1772       C  0.77688007  0.68754715  0.65498315    -0.05700
C1773       C  0.78510224  0.73285207  0.65398097    -0.06500
C1774       C  0.81147077  0.74672106  0.64320564    -0.16100
C1775       C  0.83196805  0.71308893  0.63623376    -0.01600
C1776       C  0.82251287  0.66821297  0.63553457    -0.09200
C1777       C  0.74976809  0.67333490  0.66867783     0.65100
H1778       H  0.77039381  0.75785781  0.66101906     0.10500
C1779       C  0.86341887  0.72357236  0.62912203     0.63500
H1780       H  0.83644120  0.64275286  0.62790864     0.07900
F1781       F  0.76670608  0.47461451  0.67502103    -0.19600
F1782       F  0.81211837  0.50296727  0.67607150    -0.15800
F1783       F  0.79896308  0.45871247  0.64613960    -0.19300
F1784       F  0.78450932  0.65436677  0.59073937    -0.22700
F1785       F  0.74504955  0.67785079  0.61102271    -0.24100
F1786       F  0.73994657  0.62734201  0.58231184    -0.18100
F1787       F  0.88036030  0.68536289  0.62786659    -0.20600
F1788       F  0.87621247  0.75138836  0.64568094    -0.21800
F1789       F  0.86403707  0.74367606  0.60725084    -0.19000
F1790       F  0.73604460  0.70931274  0.67925345    -0.19100
F1791       F  0.75796685  0.64380037  0.68613880    -0.22900
F1792       F  0.72964861  0.65260455  0.65412920    -0.24500
C1793       C  0.71089619  0.07185470  0.62895500    -0.11300
C1794       C  0.72597344  0.11217218  0.62545718     0.11300
C1795       C  0.75656997  0.11163587  0.62140242    -0.03100
C1796       C  0.77108671  0.07041480  0.62089884    -0.05800
C1797       C  0.75635762  0.02955002  0.62455815    -0.16600
C1798       C  0.72555835  0.03030832  0.62870072     0.02300
C1799       C  0.71002057  0.15512537  0.62796257     0.12300
C1800       C  0.77409555  0.15464711  0.61851942     0.62900
H1801       H  0.79461762  0.07017149  0.61853931     0.12300
C1802       C  0.70839767  0.98811109  0.63408986     0.55000
H1803       H  0.68757649  0.07341665  0.63249162     0.08100
C1804       C  0.69656161  0.17657852  0.60863105    -0.05700
C1805       C  0.68785289  0.22146189  0.61116647    -0.06500
C1806       C  0.69199084  0.24468564  0.63243514    -0.16100
C1807       C  0.70222502  0.22137854  0.65235886    -0.01600
C1808       C  0.71104609  0.17671161  0.64984515    -0.09200
C1809       C  0.69219481  0.15238685  0.58540336     0.65100
H1810       H  0.67933952  0.23950267  0.59615846     0.10500
C1811       C  0.70357603  0.24385110  0.67607199     0.63500
H1812       H  0.72042863  0.15904733  0.66463633     0.07900
F1813       F  0.67932569  0.99701200  0.63935944    -0.19600
F1814       F  0.72056964  0.96681051  0.65327519    -0.15800
F1815       F  0.70899106  0.95992952  0.61482082    -0.19300
F1816       F  0.77263302  0.17954461  0.63898058    -0.22700
F1817       F  0.76295158  0.17954423  0.60015286    -0.24100
F1818       F  0.80339998  0.14648398  0.61377345    -0.18100
F1819       F  0.71192834  0.21468877  0.69368796    -0.20600
F1820       F  0.67604248  0.26013830  0.68157274    -0.21800
F1821       F  0.72361368  0.27849156  0.67531719    -0.19000
F1822       F  0.67698983  0.17822489  0.56936889    -0.19100
F1823       F  0.67630145  0.11368597  0.58912647    -0.22900
F1824       F  0.71903115  0.14146878  0.57564469    -0.24500
C1825       C  0.53790962  0.35734566  0.65851511    -0.11300
C1826       C  0.52035192  0.39538766  0.65639083     0.11300
C1827       C  0.53371357  0.43806570  0.65546728    -0.03100
C1828       C  0.56459029  0.44084671  0.65449016    -0.05800
C1829       C  0.58206181  0.40229008  0.65385784    -0.16600
C1830       C  0.56867030  0.36002430  0.65745157     0.02300
C1831       C  0.48845581  0.38909892  0.65196861     0.12300
C1832       C  0.51529856  0.48011710  0.65393674     0.62900
H1833       H  0.57508958  0.47293495  0.65199329     0.12300
C1834       C  0.58603132  0.31691839  0.65803650     0.55000
H1835       H  0.52733783  0.32496974  0.65948386     0.08100
C1836       C  0.47799792  0.38034896  0.62898197    -0.05700
C1837       C  0.44762870  0.37780144  0.62534022    -0.06500
C1838       C  0.42735643  0.38202508  0.64387645    -0.16100
C1839       C  0.43788163  0.38788215  0.66715875    -0.01600
C1840       C  0.46848326  0.39186002  0.67077728    -0.09200
C1841       C  0.49881679  0.37291713  0.60837779     0.65100
H1842       H  0.43936591  0.37273131  0.60766079     0.10500
C1843       C  0.41718364  0.38780109  0.68803756     0.63500
H1844       H  0.47711729  0.39724479  0.68831089     0.07900
F1845       F  0.58764610  0.29935305  0.63554909    -0.19600
F1846       F  0.57245500  0.28609709  0.67255680    -0.15800
F1847       F  0.61409923  0.32375652  0.66660789    -0.19300
F1848       F  0.49665328  0.48251953  0.67310094    -0.22700
F1849       F  0.49878668  0.47958830  0.63353576    -0.24100
F1850       F  0.53250415  0.51823044  0.65377502    -0.18100
F1851       F  0.43221495  0.38926223  0.70919325    -0.20600
F1852       F  0.40046601  0.34923751  0.68769726    -0.21800
F1853       F  0.39894430  0.42446414  0.68707364    -0.19000
F1854       F  0.48390918  0.36784696  0.58731740    -0.19100
F1855       F  0.51495623  0.33461459  0.61215442    -0.22900
F1856       F  0.51775653  0.40869511  0.60598984    -0.24500
C1857       C  0.72216539  0.31299625  0.51960440    -0.11300
C1858       C  0.75138784  0.29923953  0.51947049     0.11300
C1859       C  0.77028652  0.31191240  0.53804030    -0.03100
C1860       C  0.75804990  0.33277459  0.55797602    -0.05800
C1861       C  0.72812367  0.34401515  0.55889800    -0.16600
C1862       C  0.71027573  0.33662227  0.53862431     0.02300
C1863       C  0.76167001  0.27466580  0.49848515     0.12300
C1864       C  0.80322868  0.30533609  0.53624014     0.62900
H1865       H  0.77176996  0.34010097  0.57304791     0.12300
C1866       C  0.67916951  0.35456490  0.53631778     0.55000
H1867       H  0.70864199  0.30493855  0.50449213     0.08100
C1868       C  0.75994035  0.22756919  0.49669522    -0.05700
C1869       C  0.76918294  0.20696836  0.47561763    -0.06500
C1870       C  0.77902066  0.23243594  0.45646133    -0.16100
C1871       C  0.77864107  0.27973796  0.45790285    -0.01600
C1872       C  0.77029333  0.29997704  0.47908052    -0.09200
C1873       C  0.74792399  0.19961465  0.51681220     0.65100
H1874       H  0.76919068  0.17097488  0.47404233     0.10500
C1875       C  0.78608619  0.30892067  0.43693203     0.63500
H1876       H  0.77019586  0.33598579  0.48068131     0.07900
F1877       F  0.65985744  0.32916469  0.54949008    -0.19600
F1878       F  0.66957247  0.35354087  0.51319954    -0.15800
F1879       F  0.67828854  0.39850777  0.54373678    -0.19300
F1880       F  0.81403761  0.33124899  0.51806272    -0.22700
F1881       F  0.80980675  0.26117873  0.53175707    -0.24100
F1882       F  0.81743597  0.31781253  0.55675166    -0.18100
F1883       F  0.77973884  0.35339782  0.44105470    -0.20600
F1884       F  0.76976655  0.29531656  0.41773109    -0.21800
F1885       F  0.81565610  0.30575047  0.43188611    -0.19000
F1886       F  0.74804070  0.15456106  0.51145160    -0.19100
F1887       F  0.71931714  0.21200640  0.52157394    -0.22900
F1888       F  0.76465771  0.20594229  0.53680745    -0.24500
loop_ 
_geom_bond_atom_site_label_1 
_geom_bond_atom_site_label_2 
_geom_bond_distance 
_geom_bond_site_symmetry_2 
_ccdc_geom_bond_type 
Fe1          O17   2.083       .  S
Fe1           O7   2.099       .  S
Fe1          O14   2.094       .  S
Fe1           O6   2.065       .  S
Fe1          O12   1.972       .  S
Fe2           O5   2.056       .  S
Fe2           O9   2.047       .  S
Fe2          O13   2.048       .  S
Fe2          O18   2.046       .  S
Fe2          O12   1.970       .  S
Fe3          O21   2.093       .  S
Fe3           O8   2.083       .  S
Fe3          O15   2.080       .  S
Fe3           O4   2.093       .  S
Fe3          O12   1.968       .  S
O4           C11   1.269       .  A
O5           C19   1.266       .  A
O6           C11   1.266       .  A
O7           C10   1.280       .  A
O8           C20   1.275       .  A
O9           C22   1.264       .  A
C10          O15   1.279       .  A
C10        C1701   1.488       .  S
C11        C1765   1.498       .  S
O13          C16   1.267       .  A
O14          C16   1.276       .  A
C16        C1742   1.484       .  S
O17          C22   1.270       .  A
O18          C20   1.264       .  A
C19          O21   1.273       .  A
C19        C1806   1.483       .  S
C20        C1861   1.485       .  S
C22        C1829   1.484       .  S
Fe23         O39   2.096       .  S
Fe23         O29   2.056       .  S
Fe23         O36   2.070       .  S
Fe23         O28   2.091       .  S
Fe23         O34   1.973       .  S
Fe24         O27   2.056       .  S
Fe24         O31   2.065       .  S
Fe24         O35   2.062       .  S
Fe24         O40   2.085       .  S
Fe24         O34   1.967       .  S
Fe25         O43   2.079       .  S
Fe25         O30   2.090       .  S
Fe25         O37   2.092       .  S
Fe25         O26   2.057       .  S
Fe25         O34   1.967       .  S
O26          C33   1.273       .  A
O27          C41   1.264       .  A
O28          C33   1.278       .  A
O29          C32   1.264       .  A
O30          C42   1.274       .  A
O31          C44   1.272       .  A
C32          O37   1.272       .  A
C32        C1605   1.493       .  S
C33        C1550   1.485       .  S
O35          C38   1.266       .  A
O36          C38   1.265       .  A
C38        C1669   1.489       .  S
O39          C44   1.279       .  A
O40          C42   1.276       .  A
C41          O43   1.270       .  A
C41        C1870   1.477       .  S
C42        C1573   1.510       .  S
C44        C1646   1.497       .  S
Fe45         O61   2.116       .  S
Fe45         O51   2.051       .  S
Fe45         O58   2.079       .  S
Fe45         O50   2.110       .  S
Fe45         O56   1.966       .  S
Fe46         O49   2.042       .  S
Fe46         O53   2.052       .  S
Fe46         O57   2.043       .  S
Fe46         O62   2.061       .  S
Fe46         O56   1.965       .  S
Fe47         O65   2.069       .  S
Fe47         O52   2.090       .  S
Fe47         O59   2.088       .  S
Fe47         O48   2.054       .  S
Fe47         O56   1.964       .  S
O48          C55   1.273       .  A
O49          C63   1.258       .  A
O50          C55   1.284       .  A
O51          C54   1.264       .  A
O52          C64   1.276       .  A
O53          C66   1.275       .  A
C54          O59   1.268       .  A
C54        C1454   1.504       .  S
C55        C1381   1.492       .  S
O57          C60   1.260       .  A
O58          C60   1.264       .  A
C60        C1838   1.488       .  S
O61          C66   1.285       .  A
O62          C64   1.273       .  A
C63          O65   1.267       .  A
C63        C1509   1.475       .  S
C64        C1413   1.486       .  S
C66        C1486   1.504       .  S
Fe67         O83   2.073       .  S
Fe67         O73   2.104       .  S
Fe67         O80   2.098       .  S
Fe67         O72   2.057       .  S
Fe67         O78   1.967       .  S
Fe68         O71   2.058       .  S
Fe68         O75   2.066       .  S
Fe68         O79   2.050       .  S
Fe68         O84   2.066       .  S
Fe68         O78   1.961       .  S
Fe69         O87   2.085       .  S
Fe69         O74   2.065       .  S
Fe69         O81   2.052       .  S
Fe69         O70   2.088       .  S
Fe69         O78   1.965       .  S
O70          C77   1.270       .  A
O71          C85   1.268       .  A
O72          C77   1.264       .  A
O73          C76   1.279       .  A
O74          C86   1.272       .  A
O75          C88   1.268       .  A
C76          O81   1.272       .  A
C76        C1262   1.478       .  S
C77        C1326   1.486   1_545  S
O79          C82   1.268       .  A
O80          C82   1.278       .  A
C82        C1285   1.491       .  S
O83          C88   1.269       .  A
O84          C86   1.268       .  A
C85          O87   1.271       .  A
C85        C1349   1.478       .  S
C86        C1518   1.481       .  S
C88        C1678   1.484       .  S
Fe89        O105   2.079       .  S
Fe89         O95   2.112       .  S
Fe89        O102   2.106       .  S
Fe89         O94   2.058       .  S
Fe89        O100   1.972       .  S
Fe90         O93   2.060       .  S
Fe90         O97   2.060       .  S
Fe90        O101   2.047       .  S
Fe90        O106   2.060       .  S
Fe90        O100   1.969       .  S
Fe91        O109   2.079       .  S
Fe91         O96   2.065       .  S
Fe91        O103   2.049       .  S
Fe91         O92   2.082       .  S
Fe91        O100   1.968       .  S
O92          C99   1.269       .  A
O93         C107   1.269       .  A
O94          C99   1.265       .  A
O95          C98   1.281       .  A
O96         C108   1.270       .  A
O97         C110   1.267       .  A
C98         O103   1.272       .  A
C98        C1157   1.486       .  S
C99        C1422   1.483   1_565  S
O101        C104   1.267       .  A
O102        C104   1.279       .  A
C104       C1294   1.483       .  S
O105        C110   1.269       .  A
O106        C108   1.266       .  A
C107        O109   1.270       .  A
C107       C1445   1.481       .  S
C108       C1221   1.471       .  S
C110       C1189   1.496       .  S
Fe111       O127   2.065       .  S
Fe111       O117   2.065       .  S
Fe111       O124   2.090       .  S
Fe111       O116   2.085       .  S
Fe111       O122   1.965       .  S
Fe112       O115   2.049       .  S
Fe112       O119   2.082       .  S
Fe112       O123   2.051       .  S
Fe112       O128   2.073       .  S
Fe112       O122   1.954       .  S
Fe113       O131   2.078       .  S
Fe113       O118   2.064       .  S
Fe113       O125   2.074       .  S
Fe113       O114   2.078       .  S
Fe113       O122   1.957       .  S
O114        C121   1.277       .  A
O115        C129   1.263       .  A
O116        C121   1.280       .  A
O117        C120   1.266       .  A
O118        C130   1.270       .  A
O119        C132   1.275       .  A
C120        O125   1.267       .  A
C120       C1358   1.488       .  S
C121       C1102   1.496       .  S
O123        C126   1.262       .  A
O124        C126   1.267       .  A
C126       C1125   1.490       .  S
O127        C132   1.276       .  A
O128        C130   1.274       .  A
C129        O131   1.271       .  A
C129       C1230   1.487       .  S
C130       C1317   1.499       .  S
C132       C1477   1.484       .  S
Fe133       O149   2.088       .  S
Fe133       O139   2.044       .  S
Fe133       O146   2.060       .  S
Fe133       O138   2.085       .  S
Fe133       O144   1.973       .  S
Fe134       O137   2.043       .  S
Fe134       O141   2.070       .  S
Fe134       O145   2.054       .  S
Fe134       O150   2.059       .  S
Fe134       O144   1.971       .  S
Fe135       O153   2.070       .  S
Fe135       O140   2.094       .  S
Fe135       O147   2.093       .  S
Fe135       O136   2.055       .  S
Fe135       O144   1.974       .  S
O136        C143   1.272       .  A
O137        C151   1.261       .  A
O138        C143   1.277       .  A
O139        C142   1.263       .  A
O140        C152   1.278       .  A
O141        C154   1.273       .  A
C142        O147   1.270       .  A
C142       C1797   1.500   1_565  S
C143       C1029   1.478       .  S
O145        C148   1.261       .  A
O146        C148   1.262       .  A
C148       C1198   1.479       .  S
O149        C154   1.278       .  A
O150        C152   1.268       .  A
C151        O153   1.268       .  A
C151       C1061   1.479       .  S
C152       C1774   1.505       .  S
C154       C1637   1.482       .  S
Fe155       O171   2.067       .  S
Fe155       O161   2.095       .  S
Fe155       O168   2.088       .  S
Fe155       O160   2.064       .  S
Fe155       O166   1.968       .  S
Fe156       O159   2.080       .  S
Fe156       O163   2.070       .  S
Fe156       O167   2.062       .  S
Fe156       O172   2.066       .  S
Fe156       O166   1.964       .  S
Fe157       O175   2.072       .  S
Fe157       O162   2.068       .  S
Fe157       O169   2.054       .  S
Fe157       O158   2.081       .  S
Fe157       O166   1.967       .  S
O158        C165   1.267       .  A
O159        C173   1.271       .  A
O160        C165   1.264       .  A
O161        C164   1.280       .  A
O162        C174   1.274       .  A
O163        C176   1.267       .  A
C164        O169   1.272       .  A
C164       C1006   1.485       .  S
C165       C1582   1.482       .  S
O167        C170   1.273       .  A
O168        C170   1.273       .  A
C170       C1733   1.504       .  S
O171        C176   1.268       .  A
O172        C174   1.269       .  A
C173        O175   1.269       .  A
C173       C1614   1.498       .  S
C174       C1070   1.476       .  S
C176       C1134   1.488       .  S
Fe177       O193   2.063       .  S
Fe177       O183   2.112       .  S
Fe177       O190   2.110       .  S
Fe177       O182   2.050       .  S
Fe177       O188   1.959       .  S
Fe178       O181   2.057       .  S
Fe178       O185   2.058       .  S
Fe178       O189   2.048       .  S
Fe178       O194   2.066       .  S
Fe178       O188   1.960       .  S
Fe179       O197   2.084       .  S
Fe179       O184   2.050       .  S
Fe179       O191   2.044       .  S
Fe179       O180   2.084       .  S
Fe179       O188   1.956       .  S
O180        C187   1.271       .  A
O181        C195   1.268       .  A
O182        C187   1.264       .  A
O183        C186   1.281       .  A
O184        C196   1.268       .  A
O185        C198   1.268       .  A
C186        O191   1.269       .  A
C186       C1710   1.482       .  S
C187        C878   1.485       .  S
O189        C192   1.267       .  A
O190        C192   1.280       .  A
C192        C846   1.492       .  S
O193        C198   1.266       .  A
O194        C196   1.268       .  A
C195        O197   1.272       .  A
C195        C901   1.480       .  S
C196        C974   1.465       .  S
C198        C933   1.477       .  S
Fe199       O215   2.075       .  S
Fe199       O205   2.056       .  S
Fe199       O212   2.080       .  S
Fe199       O204   2.089       .  S
Fe199       O210   1.959       .  S
Fe200       O203   2.059       .  S
Fe200       O207   2.064       .  S
Fe200       O211   2.059       .  S
Fe200       O216   2.055       .  S
Fe200       O210   1.957       .  S
Fe201       O219   2.066       .  S
Fe201       O206   2.070       .  S
Fe201       O213   2.082       .  S
Fe201       O202   2.063       .  S
Fe201       O210   1.957       .  S
O202        C209   1.276       .  A
O203        C217   1.267       .  A
O204        C209   1.282       .  A
O205        C208   1.263       .  A
O206        C218   1.273       .  A
O207        C220   1.273       .  A
C208        O213   1.266       .  A
C208        C741   1.487   1_545  S
C209       C1541   1.492       .  S
O211        C214   1.262       .  A
O212        C214   1.268       .  A
C214        C805   1.502       .  S
O215        C220   1.276       .  A
O216        C218   1.265       .  A
C217        O219   1.271       .  A
C217        C965   1.484       .  S
C218        C709   1.497       .  S
C220        C782   1.483       .  S
Fe221       O237   2.093       .  S
Fe221       O227   2.062       .  S
Fe221       O234   2.084       .  S
Fe221       O226   2.098       .  S
Fe221       O232   1.975       .  S
Fe222       O225   2.029       .  S
Fe222       O229   2.067       .  S
Fe222       O233   2.035       .  S
Fe222       O238   2.064       .  S
Fe222       O232   1.966       .  S
Fe223       O241   2.063       .  S
Fe223       O228   2.096       .  S
Fe223       O235   2.079       .  S
Fe223       O224   2.056       .  S
Fe223       O232   1.971       .  S
O224        C231   1.275       .  A
O225        C239   1.262       .  A
O226        C231   1.281       .  A
O227        C230   1.264       .  A
O228        C240   1.274       .  A
O229        C242   1.272       .  A
C230        O235   1.267       .  A
C230        C613   1.486       .  S
C231       C1390   1.490       .  S
O233        C236   1.258       .  A
O234        C236   1.270       .  A
C236        C942   1.489       .  S
O237        C242   1.276       .  A
O238        C240   1.270       .  A
C239        O241   1.267       .  A
C239        C677   1.469       .  S
C240        C581   1.495       .  S
C242        C654   1.490       .  S
Fe243       O259   2.078       .  S
Fe243       O249   2.105       .  S
Fe243       O256   2.097       .  S
Fe243       O248   2.059       .  S
Fe243       O254   1.970       .  S
Fe244       O247   2.083       .  S
Fe244       O251   2.059       .  S
Fe244       O255   2.069       .  S
Fe244       O260   2.054       .  S
Fe244       O254   1.970       .  S
Fe245       O263   2.072       .  S
Fe245       O250   2.060       .  S
Fe245       O257   2.054       .  S
Fe245       O246   2.072       .  S
Fe245       O254   1.965       .  S
O246        C253   1.267       .  A
O247        C261   1.273       .  A
O248        C253   1.264       .  A
O249        C252   1.280       .  A
O250        C262   1.266       .  A
O251        C264   1.264       .  A
C252        O257   1.271       .  A
C252       C1253   1.480       .  S
C253        C517   1.482       .  S
O255        C258   1.272       .  A
O256        C258   1.278       .  A
C258        C485   1.500       .  S
O259        C264   1.268       .  A
O260        C262   1.264       .  A
C261        O263   1.274       .  A
C261        C549   1.507       .  S
C262        C686   1.465       .  S
C264        C814   1.483       .  S
Fe265       O281   2.064       .  S
Fe265       O271   2.098       .  S
Fe265       O278   2.091       .  S
Fe265       O270   2.051       .  S
Fe265       O276   1.955       .  S
Fe266       O269   2.072       .  S
Fe266       O273   2.065       .  S
Fe266       O277   2.061       .  S
Fe266       O282   2.053       .  S
Fe266       O276   1.957       .  S
Fe267       O285   2.086       .  S
Fe267       O272   2.067       .  S
Fe267       O279   2.052       .  S
Fe267       O268   2.088       .  S
Fe267       O276   1.956       .  S
O268        C275   1.268       .  A
O269        C283   1.270       .  A
O270        C275   1.260       .  A
O271        C274   1.283       .  A
O272        C284   1.272       .  A
O273        C286   1.266       .  A
C274        O279   1.275       .  A
C274       C1166   1.473       .  S
C275        C590   1.496       .  S
O277        C280   1.270       .  A
O278        C280   1.277       .  A
C280        C494   1.478       .  S
O281        C286   1.267       .  A
O282        C284   1.269       .  A
C283        O285   1.273       .  A
C283        C622   1.503       .  S
C284        C453   1.475       .  S
C286        C421   1.485       .  S
Fe287       O303   2.105       .  S
Fe287       O293   2.057       .  S
Fe287       O300   2.084       .  S
Fe287       O292   2.105       .  S
Fe287       O298   1.965       .  S
Fe288       O291   2.045       .  S
Fe288       O295   2.058       .  S
Fe288       O299   2.053       .  S
Fe288       O304   2.062       .  S
Fe288       O298   1.961       .  S
Fe289       O307   2.063       .  S
Fe289       O294   2.093       .  S
Fe289       O301   2.082       .  S
Fe289       O290   2.059       .  S
Fe289       O298   1.965       .  S
O290        C297   1.273       .  A
O291        C305   1.264       .  A
O292        C297   1.280       .  A
O293        C296   1.264       .  A
O294        C306   1.274       .  A
O295        C308   1.272       .  A
C296        O301   1.269       .  A
C296        C558   1.483       .  S
C297       C1093   1.494       .  S
O299        C302   1.262       .  A
O300        C302   1.269       .  A
C302        C398   1.488       .  S
O303        C308   1.278       .  A
O304        C306   1.272       .  A
C305        O307   1.266       .  A
C305        C462   1.464       .  S
C306        C526   1.491       .  S
C308        C645   1.506       .  S
Fe309       O325   2.084       .  S
Fe309       O315   2.055       .  S
Fe309       O322   2.069       .  S
Fe309       O314   2.084       .  S
Fe309       O320   1.957       .  S
Fe310       O313   2.058       .  S
Fe310       O317   2.037       .  S
Fe310       O321   2.073       .  S
Fe310       O326   2.057       .  S
Fe310       O320   1.956       .  S
Fe311       O329   2.060       .  S
Fe311       O316   2.090       .  S
Fe311       O323   2.080       .  S
Fe311       O312   2.061       .  S
Fe311       O320   1.956       .  S
O312        C319   1.274       .  A
O313        C327   1.266       .  A
O314        C319   1.275       .  A
O315        C318   1.267       .  A
O316        C328   1.274       .  A
O317        C330   1.266       .  A
C318        O323   1.268       .  A
C318        C910   1.499   1_565  S
C319       C1038   1.488       .  S
O321        C324   1.270       .  A
O322        C324   1.267       .  A
C324        C430   1.500       .  S
O325        C330   1.273       .  A
O326        C328   1.271       .  A
C327        O329   1.267       .  A
C327        C357   1.458       .  S
C328        C869   1.486       .  S
C330        C773   1.465       .  S
Fe331       O347   2.080       .  S
Fe331       O337   2.089       .  S
Fe331       O344   2.091       .  S
Fe331       O336   2.061       .  S
Fe331       O342   1.968       .  S
Fe332       O335   2.065       .  S
Fe332       O339   2.052       .  S
Fe332       O343   2.060       .  S
Fe332       O348   2.035       .  S
Fe332       O342   1.966       .  S
Fe333       O351   2.062       .  S
Fe333       O338   2.067       .  S
Fe333       O345   2.064       .  S
Fe333       O334   2.067       .  S
Fe333       O342   1.970       .  S
O334        C341   1.264       .  A
O335        C349   1.269       .  A
O336        C341   1.264       .  A
O337        C340   1.279       .  A
O338        C350   1.267       .  A
O339        C352   1.264       .  A
C340        O345   1.274       .  A
C340        C997   1.500       .  S
C341        C718   1.472       .  S
O343        C346   1.269       .  A
O344        C346   1.278       .  A
C346        C837   1.492       .  S
O347        C352   1.267       .  A
O348        C350   1.265       .  A
C349        O351   1.268       .  A
C349        C750   1.479       .  S
C350        C366   1.484       .  S
C352        C389   1.501       .  S
C353        C354   1.403       .  A
C353        C358   1.403       .  A
C353        H363   1.084   1_556  S
C354        C359   1.468   1_556  S
C354        C355   1.410       .  A
C355        C356   1.399       .  A
C355        C360   1.515       .  S
C356        C357   1.400       .  A
C356        H361   1.084       .  S
C357        C358   1.411       .  A
C358        C362   1.513       .  S
C359        C364   1.410       .  A
C359        C368   1.403       .  A
C360        F376   1.382       .  S
C360        F377   1.382       .  S
C360        F378   1.385       .  S
C362        F373   1.383       .  S
C362        F374   1.385   1_556  S
C362        F375   1.382       .  S
C364        C365   1.393       .  A
C364        C369   1.521       .  S
C365        C366   1.409       .  A
C365        H370   1.084       .  S
C366        C367   1.421       .  A
C367        C368   1.407       .  A
C367        C371   1.519       .  S
C368        H372   1.084       .  S
C369        F382   1.383   1_554  S
C369        F383   1.384       .  S
C369        F384   1.381   1_554  S
C371        F379   1.385       .  S
C371        F380   1.383       .  S
C371        F381   1.384       .  S
C385        C386   1.400       .  A
C385        C390   1.410       .  A
C385        H395   1.083       .  S
C386        C391   1.489   1_655  S
C386        C387   1.415       .  A
C387        C388   1.409       .  A
C387        C392   1.521       .  S
C388        C389   1.411       .  A
C388        H393   1.082       .  S
C389        C390   1.428       .  A
C390        C394   1.521       .  S
C391        C396   1.416       .  A
C391        C400   1.399       .  A
C392        F408   1.382       .  S
C392        F409   1.381       .  S
C392        F410   1.385       .  S
C394        F405   1.385       .  S
C394        F406   1.384       .  S
C394        F407   1.383       .  S
C396        C397   1.414       .  A
C396        C401   1.517       .  S
C397        C398   1.407       .  A
C397        H402   1.083       .  S
C398        C399   1.423       .  A
C399        C400   1.403       .  A
C399        C403   1.522       .  S
C400        H404   1.083       .  S
C401        F414   1.385       .  S
C401        F415   1.382       .  S
C401        F416   1.382       .  S
C403        F411   1.385       .  S
C403        F412   1.382       .  S
C403        F413   1.382       .  S
C417        C418   1.403       .  A
C417        C422   1.409       .  A
C417        H427   1.083       .  S
C418        C423   1.490       .  S
C418        C419   1.417       .  A
C419        C420   1.408       .  A
C419        C424   1.520       .  S
C420        C421   1.406       .  A
C420        H425   1.083       .  S
C421        C422   1.418       .  A
C422        C426   1.516       .  S
C423        C428   1.415       .  A
C423        C432   1.402       .  A
C424        F440   1.382       .  S
C424        F441   1.383       .  S
C424        F442   1.385       .  S
C426        F437   1.382       .  S
C426        F438   1.384       .  S
C426        F439   1.384       .  S
C428        C429   1.405       .  A
C428        C433   1.522       .  S
C429        C430   1.409       .  A
C429        H434   1.082       .  S
C430        C431   1.426       .  A
C431        C432   1.414       .  A
C431        C435   1.519       .  S
C432        H436   1.083       .  S
C433        F446   1.384       .  S
C433        F447   1.382       .  S
C433        F448   1.383       .  S
C435        F443   1.385       .  S
C435        F444   1.384       .  S
C435        F445   1.383       .  S
C449        C450   1.403       .  A
C449        C454   1.406       .  A
C449        H459   1.083       .  S
C450        C455   1.471   1_556  S
C450        C451   1.409       .  A
C451        C452   1.398       .  A
C451        C456   1.521   1_556  S
C452        C453   1.408       .  A
C452        H457   1.083       .  S
C453        C454   1.416       .  A
C454        C458   1.518       .  S
C455        C460   1.413       .  A
C455        C464   1.404       .  A
C456        F472   1.382       .  S
C456        F473   1.381       .  S
C456        F474   1.385   1_554  S
C458        F469   1.385       .  S
C458        F470   1.384       .  S
C458        F471   1.383       .  S
C460        C461   1.398       .  A
C460        C465   1.522       .  S
C461        C462   1.403       .  A
C461        H466   1.084       .  S
C462        C463   1.412       .  A
C463        C464   1.405       .  A
C463        C467   1.517       .  S
C464        H468   1.083       .  S
C465        F478   1.385       .  S
C465        F479   1.382       .  S
C465        F480   1.382       .  S
C467        F475   1.383       .  S
C467        F476   1.383       .  S
C467        F477   1.384       .  S
C481        C482   1.398   1_545  A
C481        C486   1.406       .  A
C481        H491   1.083   1_554  S
C482        C487   1.493   1_554  S
C482        C483   1.417       .  A
C483        C484   1.415   1_565  A
C483        C488   1.518       .  S
C484        C485   1.409       .  A
C484        H489   1.083       .  S
C485        C486   1.426       .  A
C486        C490   1.518       .  S
C487        C492   1.419       .  A
C487        C496   1.408       .  A
C488        F504   1.382       .  S
C488        F505   1.383       .  S
C488        F506   1.385       .  S
C490        F501   1.381       .  S
C490        F502   1.385       .  S
C490        F503   1.382       .  S
C492        C493   1.405       .  A
C492        C497   1.521   1_556  S
C493        C494   1.401       .  A
C493        H498   1.084       .  S
C494        C495   1.413       .  A
C495        C496   1.414       .  A
C495        C499   1.516       .  S
C496        H500   1.083       .  S
C497        F510   1.385   1_554  S
C497        F511   1.382   1_554  S
C497        F512   1.383       .  S
C499        F507   1.384       .  S
C499        F508   1.383       .  S
C499        F509   1.384       .  S
C513        C514   1.405       .  A
C513        C518   1.407       .  A
C513        H523   1.084       .  S
C514        C519   1.489       .  S
C514        C515   1.416       .  A
C515        C516   1.409       .  A
C515        C520   1.517       .  S
C516        C517   1.405   1_565  A
C516        H521   1.083   1_565  S
C517        C518   1.416   1_545  A
C518        C522   1.518       .  S
C519        C524   1.415       .  A
C519        C528   1.404       .  A
C520        F536   1.382       .  S
C520        F537   1.381       .  S
C520        F538   1.382       .  S
C522        F533   1.385       .  S
C522        F534   1.382       .  S
C522        F535   1.384   1_565  S
C524        C525   1.409       .  A
C524        C529   1.521       .  S
C525        C526   1.409       .  A
C525        H530   1.083       .  S
C526        C527   1.420       .  A
C527        C528   1.409       .  A
C527        C531   1.518       .  S
C528        H532   1.084       .  S
C529        F542   1.384       .  S
C529        F543   1.381       .  S
C529        F544   1.381       .  S
C531        F539   1.385       .  S
C531        F540   1.382       .  S
C531        F541   1.383       .  S
C545        C546   1.402       .  A
C545        C550   1.415       .  A
C545        H555   1.083       .  S
C546        C551   1.490       .  S
C546        C547   1.413       .  A
C547        C548   1.405       .  A
C547        C552   1.522       .  S
C548        C549   1.413       .  A
C548        H553   1.082       .  S
C549        C550   1.428       .  A
C550        C554   1.520       .  S
C551        C556   1.415       .  A
C551        C560   1.404       .  A
C552        F568   1.382       .  S
C552        F569   1.382       .  S
C552        F570   1.385       .  S
C554        F565   1.385       .  S
C554        F566   1.381       .  S
C554        F567   1.383       .  S
C556        C557   1.408       .  A
C556        C561   1.518       .  S
C557        C558   1.404       .  A
C557        H562   1.083       .  S
C558        C559   1.418       .  A
C559        C560   1.409       .  A
C559        C563   1.519       .  S
C560        H564   1.083       .  S
C561        F574   1.385       .  S
C561        F575   1.382       .  S
C561        F576   1.382       .  S
C563        F571   1.385       .  S
C563        F572   1.383       .  S
C563        F573   1.380       .  S
C577        C578   1.406       .  A
C577        C582   1.412       .  A
C577        H587   1.083       .  S
C578        C583   1.496       .  S
C578        C579   1.417       .  A
C579        C580   1.411       .  A
C579        C584   1.519       .  S
C580        C581   1.408       .  A
C580        H585   1.083       .  S
C581        C582   1.418       .  A
C582        C586   1.516       .  S
C583        C588   1.418       .  A
C583        C592   1.402       .  A
C584        F600   1.382       .  S
C584        F601   1.382       .  S
C584        F602   1.384       .  S
C586        F597   1.385       .  S
C586        F598   1.382       .  S
C586        F599   1.384       .  S
C588        C589   1.413   1_545  A
C588        C593   1.520       .  S
C589        C590   1.409       .  A
C589        H594   1.083       .  S
C590        C591   1.423   1_565  A
C591        C592   1.408       .  A
C591        C595   1.520       .  S
C592        H596   1.083       .  S
C593        F606   1.385   1_545  S
C593        F607   1.381       .  S
C593        F608   1.381       .  S
C595        F603   1.385       .  S
C595        F604   1.383       .  S
C595        F605   1.384   1_545  S
C609        C610   1.405       .  A
C609        C614   1.410       .  A
C609        H619   1.083       .  S
C610        C615   1.494       .  S
C610        C611   1.416       .  A
C611        C612   1.412       .  A
C611        C616   1.518       .  S
C612        C613   1.406       .  A
C612        H617   1.083       .  S
C613        C614   1.417       .  A
C614        C618   1.519       .  S
C615        C620   1.415       .  A
C615        C624   1.403       .  A
C616        F632   1.383       .  S
C616        F633   1.382       .  S
C616        F634   1.384       .  S
C618        F629   1.382       .  S
C618        F630   1.385       .  S
C618        F631   1.384       .  S
C620        C621   1.408       .  A
C620        C625   1.521       .  S
C621        C622   1.410       .  A
C621        H626   1.083       .  S
C622        C623   1.427       .  A
C623        C624   1.415       .  A
C623        C627   1.519       .  S
C624        H628   1.083       .  S
C625        F638   1.384       .  S
C625        F639   1.382       .  S
C625        F640   1.382       .  S
C627        F635   1.385       .  S
C627        F636   1.383       .  S
C627        F637   1.383       .  S
C641        C642   1.405       .  A
C641        C646   1.417       .  A
C641        H651   1.083       .  S
C642        C647   1.496   1_554  S
C642        C643   1.414       .  A
C643        C644   1.407       .  A
C643        C648   1.522   1_554  S
C644        C645   1.412       .  A
C644        H649   1.082       .  S
C645        C646   1.426       .  A
C646        C650   1.520       .  S
C647        C652   1.417       .  A
C647        C656   1.407       .  A
C648        F664   1.382       .  S
C648        F665   1.383       .  S
C648        F666   1.384       .  S
C650        F661   1.382       .  S
C650        F662   1.385       .  S
C650        F663   1.382       .  S
C652        C653   1.407       .  A
C652        C657   1.521   1_556  S
C653        C654   1.405       .  A
C653        H658   1.083       .  S
C654        C655   1.418       .  A
C655        C656   1.415       .  A
C655        C659   1.517       .  S
C656        H660   1.083       .  S
C657        F670   1.385   1_554  S
C657        F671   1.382       .  S
C657        F672   1.383       .  S
C659        F667   1.385       .  S
C659        F668   1.382       .  S
C659        F669   1.382       .  S
C673        C674   1.402       .  A
C673        C678   1.404       .  A
C673        H683   1.083       .  S
C674        C679   1.465   1_556  S
C674        C675   1.411       .  A
C675        C676   1.395       .  A
C675        C680   1.523   1_556  S
C676        C677   1.406       .  A
C676        H681   1.083       .  S
C677        C678   1.415       .  A
C678        C682   1.517       .  S
C679        C684   1.414       .  A
C679        C688   1.395       .  A
C680        F696   1.382       .  S
C680        F697   1.382       .  S
C680        F698   1.385       .  S
C682        F693   1.384       .  S
C682        F694   1.384       .  S
C682        F695   1.383       .  S
C684        C685   1.404       .  A
C684        C689   1.519   1_554  S
C685        C686   1.401       .  A
C685        H690   1.081       .  S
C686        C687   1.417       .  A
C687        C688   1.395       .  A
C687        C691   1.517       .  S
C688        H692   1.084       .  S
C689        F702   1.384   1_556  S
C689        F703   1.383       .  S
C689        F704   1.382       .  S
C691        F699   1.378       .  S
C691        F700   1.382       .  S
C691        F701   1.385       .  S
C705        C706   1.398       .  A
C705        C710   1.409       .  A
C705        H715   1.083       .  S
C706        C711   1.480       .  S
C706        C707   1.412       .  A
C707        C708   1.403       .  A
C707        C712   1.521       .  S
C708        C709   1.410       .  A
C708        H713   1.082       .  S
C709        C710   1.430       .  A
C710        C714   1.521       .  S
C711        C716   1.417       .  A
C711        C720   1.398       .  A
C712        F728   1.383       .  S
C712        F729   1.381       .  S
C712        F730   1.384       .  S
C714        F725   1.385       .  S
C714        F726   1.383       .  S
C714        F727   1.382       .  S
C716        C717   1.408       .  A
C716        C721   1.518       .  S
C717        C718   1.401       .  A
C717        H722   1.083       .  S
C718        C719   1.416       .  A
C719        C720   1.403       .  A
C719        C723   1.514       .  S
C720        H724   1.083       .  S
C721        F734   1.384       .  S
C721        F735   1.383       .  S
C721        F736   1.382       .  S
C723        F731   1.385       .  S
C723        F732   1.383       .  S
C723        F733   1.381       .  S
C737        C738   1.403       .  A
C737        C742   1.412       .  A
C737        H747   1.084       .  S
C738        C743   1.486       .  S
C738        C739   1.417       .  A
C739        C740   1.404       .  A
C739        C744   1.522       .  S
C740        C741   1.404       .  A
C740        H745   1.094       .  S
C741        C742   1.420       .  A
C742        C746   1.516   1_565  S
C743        C748   1.414       .  A
C743        C752   1.404       .  A
C744        F760   1.382       .  S
C744        F761   1.382       .  S
C744        F762   1.384       .  S
C746        F757   1.382       .  S
C746        F758   1.385       .  S
C746        F759   1.382       .  S
C748        C749   1.406       .  A
C748        C753   1.519       .  S
C749        C750   1.406       .  A
C749        H754   1.084       .  S
C750        C751   1.417       .  A
C751        C752   1.408       .  A
C751        C755   1.519       .  S
C752        H756   1.083       .  S
C753        F766   1.385       .  S
C753        F767   1.382       .  S
C753        F768   1.382       .  S
C755        F763   1.384       .  S
C755        F764   1.384       .  S
C755        F765   1.382       .  S
C769        C770   1.404   1_556  A
C769        C774   1.407       .  A
C769        H779   1.083       .  S
C770        C775   1.475   1_565  S
C770        C771   1.416   1_554  A
C771        C772   1.401       .  A
C771        C776   1.523   1_556  S
C772        C773   1.401       .  A
C772        H777   1.083       .  S
C773        C774   1.411       .  A
C774        C778   1.516       .  S
C775        C780   1.410       .  A
C775        C784   1.403   1_545  A
C776        F792   1.382       .  S
C776        F793   1.382   1_565  S
C776        F794   1.383   1_554  S
C778        F789   1.384       .  S
C778        F790   1.384       .  S
C778        F791   1.383       .  S
C780        C781   1.400       .  A
C780        C785   1.522       .  S
C781        C782   1.410       .  A
C781        H786   1.083       .  S
C782        C783   1.417   1_545  A
C783        C784   1.408       .  A
C783        C787   1.516       .  S
C784        H788   1.084       .  S
C785        F798   1.385       .  S
C785        F799   1.382   1_554  S
C785        F800   1.382   1_554  S
C787        F795   1.384       .  S
C787        F796   1.382       .  S
C787        F797   1.385       .  S
C801        C802   1.401       .  A
C801        C806   1.411       .  A
C801        H811   1.084       .  S
C802        C807   1.489       .  S
C802        C803   1.414       .  A
C803        C804   1.408       .  A
C803        C808   1.520       .  S
C804        C805   1.411       .  A
C804        H809   1.083       .  S
C805        C806   1.426       .  A
C806        C810   1.517       .  S
C807        C812   1.417       .  A
C807        C816   1.399       .  A
C808        F824   1.382       .  S
C808        F825   1.382       .  S
C808        F826   1.385       .  S
C810        F821   1.384       .  S
C810        F822   1.385       .  S
C810        F823   1.383       .  S
C812        C813   1.414       .  A
C812        C817   1.517       .  S
C813        C814   1.405       .  A
C813        H818   1.083       .  S
C814        C815   1.422       .  A
C815        C816   1.404       .  A
C815        C819   1.522       .  S
C816        H820   1.083       .  S
C817        F830   1.384       .  S
C817        F831   1.382       .  S
C817        F832   1.382       .  S
C819        F827   1.382       .  S
C819        F828   1.382       .  S
C819        F829   1.385       .  S
C833        C834   1.400       .  A
C833        C838   1.409       .  A
C833        H843   1.083       .  S
C834        C839   1.491       .  S
C834        C835   1.417       .  A
C835        C836   1.410       .  A
C835        C840   1.519       .  S
C836        C837   1.406       .  A
C836        H841   1.083       .  S
C837        C838   1.425       .  A
C838        C842   1.518       .  S
C839        C844   1.417   1_554  A
C839        C848   1.400   1_554  A
C840        F856   1.382       .  S
C840        F857   1.383       .  S
C840        F858   1.384       .  S
C842        F853   1.385       .  S
C842        F854   1.384       .  S
C842        F855   1.383       .  S
C844        C845   1.410       .  A
C844        C849   1.519       .  S
C845        C846   1.404       .  A
C845        H850   1.080       .  S
C846        C847   1.424       .  A
C847        C848   1.410       .  A
C847        C851   1.519       .  S
C848        H852   1.084   1_556  S
C849        F862   1.383       .  S
C849        F863   1.383       .  S
C849        F864   1.383   1_556  S
C851        F859   1.385       .  S
C851        F860   1.384       .  S
C851        F861   1.381       .  S
C865        C866   1.404       .  A
C865        C870   1.408       .  A
C865        H875   1.083       .  S
C866        C871   1.488       .  S
C866        C867   1.415       .  A
C867        C868   1.409       .  A
C867        C872   1.519       .  S
C868        C869   1.408       .  A
C868        H873   1.083       .  S
C869        C870   1.418       .  A
C870        C874   1.518       .  S
C871        C876   1.416       .  A
C871        C880   1.401       .  A
C872        F888   1.382       .  S
C872        F889   1.382       .  S
C872        F890   1.385       .  S
C874        F885   1.385       .  S
C874        F886   1.382       .  S
C874        F887   1.384       .  S
C876        C877   1.409       .  A
C876        C881   1.518       .  S
C877        C878   1.406       .  A
C877        H882   1.083       .  S
C878        C879   1.419       .  A
C879        C880   1.405       .  A
C879        C883   1.516       .  S
C880        H884   1.081       .  S
C881        F894   1.384       .  S
C881        F895   1.382       .  S
C881        F896   1.382       .  S
C883        F891   1.385       .  S
C883        F892   1.382       .  S
C883        F893   1.384       .  S
C897        C898   1.403       .  A
C897        C902   1.407       .  A
C897        H907   1.083       .  S
C898        C903   1.485       .  S
C898        C899   1.414       .  A
C899        C900   1.408       .  A
C899        C904   1.519       .  S
C900        C901   1.406       .  A
C900        H905   1.083       .  S
C901        C902   1.415       .  A
C902        C906   1.517       .  S
C903        C908   1.414       .  A
C903        C912   1.399       .  A
C904        F920   1.383       .  S
C904        F921   1.382       .  S
C904        F922   1.384       .  S
C906        F917   1.381       .  S
C906        F918   1.384       .  S
C906        F919   1.384       .  S
C908        C909   1.405       .  A
C908        C913   1.522       .  S
C909        C910   1.410       .  A
C909        H914   1.082       .  S
C910        C911   1.428       .  A
C911        C912   1.411       .  A
C911        C915   1.521   1_545  S
C912        H916   1.083       .  S
C913        F926   1.385       .  S
C913        F927   1.382       .  S
C913        F928   1.382       .  S
C915        F923   1.385       .  S
C915        F924   1.383       .  S
C915        F925   1.383       .  S
C929        C930   1.402       .  A
C929        C934   1.406       .  A
C929        H939   1.083       .  S
C930        C935   1.483   1_655  S
C930        C931   1.417       .  A
C931        C932   1.404       .  A
C931        C936   1.519       .  S
C932        C933   1.403       .  A
C932        H937   1.084       .  S
C933        C934   1.418       .  A
C934        C938   1.519       .  S
C935        C940   1.414       .  A
C935        C944   1.396       .  A
C936        F952   1.382       .  S
C936        F953   1.382       .  S
C936        F954   1.385       .  S
C938        F949   1.383       .  S
C938        F950   1.385       .  S
C938        F951   1.383       .  S
C940        C941   1.412       .  A
C940        C945   1.517       .  S
C941        C942   1.408       .  A
C941        H946   1.083       .  S
C942        C943   1.429       .  A
C943        C944   1.401       .  A
C943        C947   1.525       .  S
C944        H948   1.083       .  S
C945        F958   1.384       .  S
C945        F959   1.382       .  S
C945        F960   1.383       .  S
C947        F955   1.382       .  S
C947        F956   1.383       .  S
C947        F957   1.385       .  S
C961        C962   1.395       .  A
C961        C966   1.401       .  A
C961        H971   1.083       .  S
C962        C967   1.476   1_554  S
C962        C963   1.414       .  A
C963        C964   1.407       .  A
C963        C968   1.519       .  S
C964        C965   1.407       .  A
C964        H969   1.083       .  S
C965        C966   1.425       .  A
C966        C970   1.520       .  S
C967        C972   1.415       .  A
C967        C976   1.403       .  A
C968        F984   1.382       .  S
C968        F985   1.383   1_554  S
C968        F986   1.384       .  S
C970        F981   1.383       .  S
C970        F982   1.385       .  S
C970        F983   1.381       .  S
C972        C973   1.402       .  A
C972        C977   1.520       .  S
C973        C974   1.402       .  A
C973        H978   1.084       .  S
C974        C975   1.413       .  A
C975        C976   1.404       .  A
C975        C979   1.518       .  S
C976        H980   1.083   1_556  S
C977        F990   1.385       .  S
C977        F991   1.382       .  S
C977        F992   1.382       .  S
C979        F987   1.384   1_556  S
C979        F988   1.384       .  S
C979        F989   1.382       .  S
C993        C994   1.403       .  A
C993        C998   1.411       .  A
C993       H1003   1.082       .  S
C994        C999   1.485       .  S
C994        C995   1.411       .  A
C995        C996   1.405       .  A
C995       C1000   1.522       .  S
C996        C997   1.414       .  A
C996       H1001   1.080       .  S
C997        C998   1.422       .  A
C998       C1002   1.518       .  S
C999       C1004   1.416       .  A
C999       C1008   1.401       .  A
C1000      F1016   1.382       .  S
C1000      F1017   1.382       .  S
C1000      F1018   1.385       .  S
C1002      F1013   1.383       .  S
C1002      F1014   1.385       .  S
C1002      F1015   1.384       .  S
C1004      C1005   1.408       .  A
C1004      C1009   1.520       .  S
C1005      C1006   1.406       .  A
C1005      H1010   1.083       .  S
C1006      C1007   1.421       .  A
C1007      C1008   1.406       .  A
C1007      C1011   1.520       .  S
C1008      H1012   1.083       .  S
C1009      F1022   1.385       .  S
C1009      F1023   1.382       .  S
C1009      F1024   1.382       .  S
C1011      F1019   1.382       .  S
C1011      F1020   1.384       .  S
C1011      F1021   1.385       .  S
C1025      C1026   1.407       .  A
C1025      C1030   1.411       .  A
C1025      H1035   1.083       .  S
C1026      C1031   1.486       .  S
C1026      C1027   1.415       .  A
C1027      C1028   1.401       .  A
C1027      C1032   1.522       .  S
C1028      C1029   1.403       .  A
C1028      H1033   1.082       .  S
C1029      C1030   1.413       .  A
C1030      C1034   1.516       .  S
C1031      C1036   1.417       .  A
C1031      C1040   1.398       .  A
C1032      F1048   1.382       .  S
C1032      F1049   1.383       .  S
C1032      F1050   1.385       .  S
C1034      F1045   1.383       .  S
C1034      F1046   1.385       .  S
C1034      F1047   1.382       .  S
C1036      C1037   1.408       .  A
C1036      C1041   1.520       .  S
C1037      C1038   1.406       .  A
C1037      H1042   1.083       .  S
C1038      C1039   1.425       .  A
C1039      C1040   1.406       .  A
C1039      C1043   1.521       .  S
C1040      H1044   1.083       .  S
C1041      F1054   1.385       .  S
C1041      F1055   1.381       .  S
C1041      F1056   1.383       .  S
C1043      F1051   1.379       .  S
C1043      F1052   1.383       .  S
C1043      F1053   1.385   1_565  S
C1057      C1058   1.395       .  A
C1057      C1062   1.399       .  A
C1057      H1067   1.083       .  S
C1058      C1063   1.478       .  S
C1058      C1059   1.416       .  A
C1059      C1060   1.409       .  A
C1059      C1064   1.518       .  S
C1060      C1061   1.405       .  A
C1060      H1065   1.083       .  S
C1061      C1062   1.424       .  A
C1062      C1066   1.521       .  S
C1063      C1068   1.416       .  A
C1063      C1072   1.400       .  A
C1064      F1080   1.382       .  S
C1064      F1081   1.382       .  S
C1064      F1082   1.385       .  S
C1066      F1077   1.385       .  S
C1066      F1078   1.382       .  S
C1066      F1079   1.382       .  S
C1068      C1069   1.406       .  A
C1068      C1073   1.520       .  S
C1069      C1070   1.404       .  A
C1069      H1074   1.083       .  S
C1070      C1071   1.419       .  A
C1071      C1072   1.404       .  A
C1071      C1075   1.519       .  S
C1072      H1076   1.083       .  S
C1073      F1086   1.385       .  S
C1073      F1087   1.382       .  S
C1073      F1088   1.382       .  S
C1075      F1083   1.383       .  S
C1075      F1084   1.382       .  S
C1075      F1085   1.385       .  S
C1089      C1090   1.403       .  A
C1089      C1094   1.412       .  A
C1089      H1099   1.083       .  S
C1090      C1095   1.494       .  S
C1090      C1091   1.416       .  A
C1091      C1092   1.410       .  A
C1091      C1096   1.520       .  S
C1092      C1093   1.408       .  A
C1092      H1097   1.083       .  S
C1093      C1094   1.423       .  A
C1094      C1098   1.519       .  S
C1095      C1100   1.414       .  A
C1095      C1104   1.407       .  A
C1096      F1112   1.382       .  S
C1096      F1113   1.383       .  S
C1096      F1114   1.384       .  S
C1098      F1109   1.383       .  S
C1098      F1110   1.385       .  S
C1098      F1111   1.380       .  S
C1100      C1101   1.406       .  A
C1100      C1105   1.521       .  S
C1101      C1102   1.410       .  A
C1101      H1106   1.081       .  S
C1102      C1103   1.420       .  A
C1103      C1104   1.414       .  A
C1103      C1107   1.517       .  S
C1104      H1108   1.083       .  S
C1105      F1118   1.385       .  S
C1105      F1119   1.382       .  S
C1105      F1120   1.382       .  S
C1107      F1115   1.384       .  S
C1107      F1116   1.382       .  S
C1107      F1117   1.384       .  S
C1121      C1122   1.407       .  A
C1121      C1126   1.416       .  A
C1121      H1131   1.083       .  S
C1122      C1127   1.492       .  S
C1122      C1123   1.417       .  A
C1123      C1124   1.403       .  A
C1123      C1128   1.523       .  S
C1124      C1125   1.405       .  A
C1124      H1129   1.083       .  S
C1125      C1126   1.419       .  A
C1126      C1130   1.516       .  S
C1127      C1132   1.417       .  A
C1127      C1136   1.404       .  A
C1128      F1144   1.382       .  S
C1128      F1145   1.383       .  S
C1128      F1146   1.384       .  S
C1130      F1141   1.382       .  S
C1130      F1142   1.385       .  S
C1130      F1143   1.383       .  S
C1132      C1133   1.409       .  A
C1132      C1137   1.520       .  S
C1133      C1134   1.407       .  A
C1133      H1138   1.083       .  S
C1134      C1135   1.419       .  A
C1135      C1136   1.410       .  A
C1135      C1139   1.517       .  S
C1136      H1140   1.083       .  S
C1137      F1150   1.385       .  S
C1137      F1151   1.382       .  S
C1137      F1152   1.383       .  S
C1139      F1147   1.384       .  S
C1139      F1148   1.383       .  S
C1139      F1149   1.382       .  S
C1153      C1154   1.405       .  A
C1153      C1158   1.412       .  A
C1153      H1163   1.083       .  S
C1154      C1159   1.487       .  S
C1154      C1155   1.415       .  A
C1155      C1156   1.404       .  A
C1155      C1160   1.521       .  S
C1156      C1157   1.406       .  A
C1156      H1161   1.084       .  S
C1157      C1158   1.415       .  A
C1158      C1162   1.510       .  S
C1159      C1164   1.416       .  A
C1159      C1168   1.405       .  A
C1160      F1176   1.381       .  S
C1160      F1177   1.382       .  S
C1160      F1178   1.384       .  S
C1162      F1173   1.382       .  S
C1162      F1174   1.385       .  S
C1162      F1175   1.381       .  S
C1164      C1165   1.406       .  A
C1164      C1169   1.518       .  S
C1165      C1166   1.403       .  A
C1165      H1170   1.084       .  S
C1166      C1167   1.414       .  A
C1167      C1168   1.407       .  A
C1167      C1171   1.519       .  S
C1168      H1172   1.083       .  S
C1169      F1182   1.385   1_565  S
C1169      F1183   1.382       .  S
C1169      F1184   1.382       .  S
C1171      F1179   1.382       .  S
C1171      F1180   1.384       .  S
C1171      F1181   1.385       .  S
C1185      C1186   1.400       .  A
C1185      C1190   1.410       .  A
C1185      H1195   1.083       .  S
C1186      C1191   1.483   1_455  S
C1186      C1187   1.415       .  A
C1187      C1188   1.404       .  A
C1187      C1192   1.523       .  S
C1188      C1189   1.408       .  A
C1188      H1193   1.082       .  S
C1189      C1190   1.422       .  A
C1190      C1194   1.512       .  S
C1191      C1196   1.413       .  A
C1191      C1200   1.399       .  A
C1192      F1208   1.382   1_455  S
C1192      F1209   1.382   1_455  S
C1192      F1210   1.384       .  S
C1194      F1205   1.385       .  S
C1194      F1206   1.382       .  S
C1194      F1207   1.380       .  S
C1196      C1197   1.410       .  A
C1196      C1201   1.517       .  S
C1197      C1198   1.406       .  A
C1197      H1202   1.083       .  S
C1198      C1199   1.420       .  A
C1199      C1200   1.404       .  A
C1199      C1203   1.520       .  S
C1200      H1204   1.083       .  S
C1201      F1214   1.384       .  S
C1201      F1215   1.383       .  S
C1201      F1216   1.382       .  S
C1203      F1211   1.383   1_565  S
C1203      F1212   1.382       .  S
C1203      F1213   1.384   1_565  S
C1217      C1218   1.402       .  A
C1217      C1222   1.406       .  A
C1217      H1227   1.083       .  S
C1218      C1223   1.480       .  S
C1218      C1219   1.415       .  A
C1219      C1220   1.405       .  A
C1219      C1224   1.520       .  S
C1220      C1221   1.403       .  A
C1220      H1225   1.083       .  S
C1221      C1222   1.415       .  A
C1222      C1226   1.518       .  S
C1223      C1228   1.415       .  A
C1223      C1232   1.393       .  A
C1224      F1240   1.382       .  S
C1224      F1241   1.382       .  S
C1224      F1242   1.384       .  S
C1226      F1237   1.382       .  S
C1226      F1238   1.384       .  S
C1226      F1239   1.384       .  S
C1228      C1229   1.410       .  A
C1228      C1233   1.518       .  S
C1229      C1230   1.406       .  A
C1229      H1234   1.083       .  S
C1230      C1231   1.428       .  A
C1231      C1232   1.401       .  A
C1231      C1235   1.520       .  S
C1232      H1236   1.083       .  S
C1233      F1246   1.385       .  S
C1233      F1247   1.382       .  S
C1233      F1248   1.382       .  S
C1235      F1243   1.377       .  S
C1235      F1244   1.383       .  S
C1235      F1245   1.385       .  S
C1249      C1250   1.407       .  A
C1249      C1254   1.414       .  A
C1249      H1259   1.083       .  S
C1250      C1255   1.489       .  S
C1250      C1251   1.414       .  A
C1251      C1252   1.407       .  A
C1251      C1256   1.520       .  S
C1252      C1253   1.404       .  A
C1252      H1257   1.084       .  S
C1253      C1254   1.413       .  A
C1254      C1258   1.515       .  S
C1255      C1260   1.417       .  A
C1255      C1264   1.404       .  A
C1256      F1272   1.382       .  S
C1256      F1273   1.382       .  S
C1256      F1274   1.380       .  S
C1258      F1269   1.384       .  S
C1258      F1270   1.384       .  S
C1258      F1271   1.383       .  S
C1260      C1261   1.409       .  A
C1260      C1265   1.518       .  S
C1261      C1262   1.403       .  A
C1261      H1266   1.084       .  S
C1262      C1263   1.414       .  A
C1263      C1264   1.408       .  A
C1263      C1267   1.515       .  S
C1264      H1268   1.083       .  S
C1265      F1278   1.383   1_545  S
C1265      F1279   1.382       .  S
C1265      F1280   1.382   1_545  S
C1267      F1275   1.385       .  S
C1267      F1276   1.377       .  S
C1267      F1277   1.383       .  S
C1281      C1282   1.400       .  A
C1281      C1286   1.408       .  A
C1281      H1291   1.083       .  S
C1282      C1287   1.487   1_545  S
C1282      C1283   1.416   1_545  A
C1283      C1284   1.408   1_565  A
C1283      C1288   1.518       .  S
C1284      C1285   1.404       .  A
C1284      H1289   1.078   1_545  S
C1285      C1286   1.423       .  A
C1286      C1290   1.518       .  S
C1287      C1292   1.417   1_565  A
C1287      C1296   1.401       .  A
C1288      F1304   1.383       .  S
C1288      F1305   1.382       .  S
C1288      F1306   1.384       .  S
C1290      F1301   1.381       .  S
C1290      F1302   1.385       .  S
C1290      F1303   1.384       .  S
C1292      C1293   1.408   1_545  A
C1292      C1297   1.520       .  S
C1293      C1294   1.401       .  A
C1293      H1298   1.079   1_565  S
C1294      C1295   1.419       .  A
C1295      C1296   1.410       .  A
C1295      C1299   1.518       .  S
C1296      H1300   1.083       .  S
C1297      F1310   1.380       .  S
C1297      F1311   1.382       .  S
C1297      F1312   1.383       .  S
C1299      F1307   1.384       .  S
C1299      F1308   1.383       .  S
C1299      F1309   1.382       .  S
C1313      C1314   1.402       .  A
C1313      C1318   1.410       .  A
C1313      H1323   1.083       .  S
C1314      C1319   1.486       .  S
C1314      C1315   1.411       .  A
C1315      C1316   1.405       .  A
C1315      C1320   1.520       .  S
C1316      C1317   1.411       .  A
C1316      H1321   1.080       .  S
C1317      C1318   1.426       .  A
C1318      C1322   1.521       .  S
C1319      C1324   1.415       .  A
C1319      C1328   1.401       .  A
C1320      F1336   1.383       .  S
C1320      F1337   1.381       .  S
C1320      F1338   1.385       .  S
C1322      F1333   1.385       .  S
C1322      F1334   1.383       .  S
C1322      F1335   1.384       .  S
C1324      C1325   1.410       .  A
C1324      C1329   1.518       .  S
C1325      C1326   1.407       .  A
C1325      H1330   1.083   1_565  S
C1326      C1327   1.419       .  A
C1327      C1328   1.406       .  A
C1327      C1331   1.515       .  S
C1328      H1332   1.084       .  S
C1329      F1342   1.383       .  S
C1329      F1343   1.383       .  S
C1329      F1344   1.382       .  S
C1331      F1339   1.385       .  S
C1331      F1340   1.379       .  S
C1331      F1341   1.384   1_565  S
C1345      C1346   1.404       .  A
C1345      C1350   1.407       .  A
C1345      H1355   1.083       .  S
C1346      C1351   1.486       .  S
C1346      C1347   1.414       .  A
C1347      C1348   1.407       .  A
C1347      C1352   1.519       .  S
C1348      C1349   1.405       .  A
C1348      H1353   1.083       .  S
C1349      C1350   1.414       .  A
C1350      C1354   1.513       .  S
C1351      C1356   1.415       .  A
C1351      C1360   1.402       .  A
C1352      F1368   1.382       .  S
C1352      F1369   1.382       .  S
C1352      F1370   1.384       .  S
C1354      F1365   1.382       .  S
C1354      F1366   1.384       .  S
C1354      F1367   1.382       .  S
C1356      C1357   1.405       .  A
C1356      C1361   1.521       .  S
C1357      C1358   1.406       .  A
C1357      H1362   1.083       .  S
C1358      C1359   1.420       .  A
C1359      C1360   1.411       .  A
C1359      C1363   1.517       .  S
C1360      H1364   1.083       .  S
C1361      F1374   1.384       .  S
C1361      F1375   1.382       .  S
C1361      F1376   1.383       .  S
C1363      F1371   1.382       .  S
C1363      F1372   1.383       .  S
C1363      F1373   1.385       .  S
C1377      C1378   1.407       .  A
C1377      C1382   1.414       .  A
C1377      H1387   1.083       .  S
C1378      C1383   1.490       .  S
C1378      C1379   1.413       .  A
C1379      C1380   1.406       .  A
C1379      C1384   1.521       .  S
C1380      C1381   1.410       .  A
C1380      H1385   1.083       .  S
C1381      C1382   1.417       .  A
C1382      C1386   1.515       .  S
C1383      C1388   1.416       .  A
C1383      C1392   1.403       .  A
C1384      F1400   1.382       .  S
C1384      F1401   1.382       .  S
C1384      F1402   1.384       .  S
C1386      F1397   1.383       .  S
C1386      F1398   1.385       .  S
C1386      F1399   1.382       .  S
C1388      C1389   1.407       .  A
C1388      C1393   1.520       .  S
C1389      C1390   1.407       .  A
C1389      H1394   1.082       .  S
C1390      C1391   1.422       .  A
C1391      C1392   1.410       .  A
C1391      C1395   1.520       .  S
C1392      H1396   1.083       .  S
C1393      F1406   1.385       .  S
C1393      F1407   1.381       .  S
C1393      F1408   1.382       .  S
C1395      F1403   1.385       .  S
C1395      F1404   1.383       .  S
C1395      F1405   1.383       .  S
C1409      C1410   1.403       .  A
C1409      C1414   1.408       .  A
C1409      H1419   1.083       .  S
C1410      C1415   1.488       .  S
C1410      C1411   1.416       .  A
C1411      C1412   1.409       .  A
C1411      C1416   1.520       .  S
C1412      C1413   1.407       .  A
C1412      H1417   1.082       .  S
C1413      C1414   1.418       .  A
C1414      C1418   1.519       .  S
C1415      C1420   1.416       .  A
C1415      C1424   1.401       .  A
C1416      F1432   1.382       .  S
C1416      F1433   1.382       .  S
C1416      F1434   1.385       .  S
C1418      F1429   1.384       .  S
C1418      F1430   1.385       .  S
C1418      F1431   1.382       .  S
C1420      C1421   1.412       .  A
C1420      C1425   1.518       .  S
C1421      C1422   1.406       .  A
C1421      H1426   1.083   1_545  S
C1422      C1423   1.415       .  A
C1423      C1424   1.405       .  A
C1423      C1427   1.512       .  S
C1424      H1428   1.084       .  S
C1425      F1438   1.384       .  S
C1425      F1439   1.382       .  S
C1425      F1440   1.382       .  S
C1427      F1435   1.382       .  S
C1427      F1436   1.384   1_545  S
C1427      F1437   1.384       .  S
C1441      C1442   1.406       .  A
C1441      C1446   1.409       .  A
C1441      H1451   1.083       .  S
C1442      C1447   1.493       .  S
C1442      C1443   1.417       .  A
C1443      C1444   1.409       .  A
C1443      C1448   1.519       .  S
C1444      C1445   1.406       .  A
C1444      H1449   1.083       .  S
C1445      C1446   1.415       .  A
C1446      C1450   1.518       .  S
C1447      C1452   1.415       .  A
C1447      C1456   1.404       .  A
C1448      F1464   1.382       .  S
C1448      F1465   1.383       .  S
C1448      F1466   1.385       .  S
C1450      F1461   1.383       .  S
C1450      F1462   1.384       .  S
C1450      F1463   1.383       .  S
C1452      C1453   1.404       .  A
C1452      C1457   1.523       .  S
C1453      C1454   1.410       .  A
C1453      H1458   1.080       .  S
C1454      C1455   1.425       .  A
C1455      C1456   1.416       .  A
C1455      C1459   1.517       .  S
C1456      H1460   1.082       .  S
C1457      F1470   1.385       .  S
C1457      F1471   1.381       .  S
C1457      F1472   1.383       .  S
C1459      F1467   1.385       .  S
C1459      F1468   1.382       .  S
C1459      F1469   1.384       .  S
C1473      C1474   1.405       .  A
C1473      C1478   1.411       .  A
C1473      H1483   1.083       .  S
C1474      C1479   1.488       .  S
C1474      C1475   1.417       .  A
C1475      C1476   1.405       .  A
C1475      C1480   1.522       .  S
C1476      C1477   1.405       .  A
C1476      H1481   1.083       .  S
C1477      C1478   1.420       .  A
C1478      C1482   1.519       .  S
C1479      C1484   1.411       .  A
C1479      C1488   1.401       .  A
C1480      F1496   1.382       .  S
C1480      F1497   1.381       .  S
C1480      F1498   1.385       .  S
C1482      F1493   1.385       .  S
C1482      F1494   1.383       .  S
C1482      F1495   1.384       .  S
C1484      C1485   1.408       .  A
C1484      C1489   1.520       .  S
C1485      C1486   1.414       .  A
C1485      H1490   1.083       .  S
C1486      C1487   1.425       .  A
C1487      C1488   1.411       .  A
C1487      C1491   1.515       .  S
C1488      H1492   1.083       .  S
C1489      F1502   1.384       .  S
C1489      F1503   1.382       .  S
C1489      F1504   1.382       .  S
C1491      F1499   1.383       .  S
C1491      F1500   1.381       .  S
C1491      F1501   1.385       .  S
C1505      C1506   1.395       .  A
C1505      C1510   1.399       .  A
C1505      H1515   1.084       .  S
C1506      C1511   1.473       .  S
C1506      C1507   1.414       .  A
C1507      C1508   1.407       .  A
C1507      C1512   1.516       .  S
C1508      C1509   1.403       .  A
C1508      H1513   1.084       .  S
C1509      C1510   1.424       .  A
C1510      C1514   1.521       .  S
C1511      C1516   1.415       .  A
C1511      C1520   1.400       .  A
C1512      F1528   1.382       .  S
C1512      F1529   1.383       .  S
C1512      F1530   1.385       .  S
C1514      F1525   1.382       .  S
C1514      F1526   1.385       .  S
C1514      F1527   1.381       .  S
C1516      C1517   1.405       .  A
C1516      C1521   1.519       .  S
C1517      C1518   1.407       .  A
C1517      H1522   1.084       .  S
C1518      C1519   1.421       .  A
C1519      C1520   1.402       .  A
C1519      C1523   1.520       .  S
C1520      H1524   1.084       .  S
C1521      F1534   1.383       .  S
C1521      F1535   1.383       .  S
C1521      F1536   1.382       .  S
C1523      F1531   1.385       .  S
C1523      F1532   1.384       .  S
C1523      F1533   1.382       .  S
C1537      C1538   1.406       .  A
C1537      C1542   1.413       .  A
C1537      H1547   1.083       .  S
C1538      C1543   1.484       .  S
C1538      C1539   1.411       .  A
C1539      C1540   1.402       .  A
C1539      C1544   1.523       .  S
C1540      C1541   1.410       .  A
C1540      H1545   1.081       .  S
C1541      C1542   1.420       .  A
C1542      C1546   1.518       .  S
C1543      C1548   1.415       .  A
C1543      C1552   1.401       .  A
C1544      F1560   1.382       .  S
C1544      F1561   1.382       .  S
C1544      F1562   1.385       .  S
C1546      F1557   1.384       .  S
C1546      F1558   1.384       .  S
C1546      F1559   1.383       .  S
C1548      C1549   1.407       .  A
C1548      C1553   1.520       .  S
C1549      C1550   1.407       .  A
C1549      H1554   1.081       .  S
C1550      C1551   1.421       .  A
C1551      C1552   1.407       .  A
C1551      C1555   1.519       .  S
C1552      H1556   1.083       .  S
C1553      F1566   1.385       .  S
C1553      F1567   1.382       .  S
C1553      F1568   1.381       .  S
C1555      F1563   1.385       .  S
C1555      F1564   1.382       .  S
C1555      F1565   1.382       .  S
C1569      C1570   1.401       .  A
C1569      C1574   1.410       .  A
C1569      H1579   1.083       .  S
C1570      C1575   1.498       .  S
C1570      C1571   1.416       .  A
C1571      C1572   1.416       .  A
C1571      C1576   1.518       .  S
C1572      C1573   1.413       .  A
C1572      H1577   1.082       .  S
C1573      C1574   1.428       .  A
C1574      C1578   1.519       .  S
C1575      C1580   1.420       .  A
C1575      C1584   1.408       .  A
C1576      F1592   1.382       .  S
C1576      F1593   1.382       .  S
C1576      F1594   1.384       .  S
C1578      F1589   1.382       .  S
C1578      F1590   1.385       .  S
C1578      F1591   1.383       .  S
C1580      C1581   1.410       .  A
C1580      C1585   1.519       .  S
C1581      C1582   1.403       .  A
C1581      H1586   1.084       .  S
C1582      C1583   1.412       .  A
C1583      C1584   1.411       .  A
C1583      C1587   1.515       .  S
C1584      H1588   1.083       .  S
C1585      F1598   1.386       .  S
C1585      F1599   1.381       .  S
C1585      F1600   1.381       .  S
C1587      F1595   1.385       .  S
C1587      F1596   1.378       .  S
C1587      F1597   1.383       .  S
C1601      C1602   1.402       .  A
C1601      C1606   1.407       .  A
C1601      H1611   1.084       .  S
C1602      C1607   1.496       .  S
C1602      C1603   1.417       .  A
C1603      C1604   1.414   1_565  A
C1603      C1608   1.517       .  S
C1604      C1605   1.407       .  A
C1604      H1609   1.083       .  S
C1605      C1606   1.420   1_545  A
C1606      C1610   1.515       .  S
C1607      C1612   1.417       .  A
C1607      C1616   1.402       .  A
C1608      F1624   1.382       .  S
C1608      F1625   1.382       .  S
C1608      F1626   1.384   1_565  S
C1610      F1621   1.382       .  S
C1610      F1622   1.385       .  S
C1610      F1623   1.384   1_565  S
C1612      C1613   1.410       .  A
C1612      C1617   1.520       .  S
C1613      C1614   1.409       .  A
C1613      H1618   1.083       .  S
C1614      C1615   1.423       .  A
C1615      C1616   1.413       .  A
C1615      C1619   1.518       .  S
C1616      H1620   1.082       .  S
C1617      F1630   1.385       .  S
C1617      F1631   1.382       .  S
C1617      F1632   1.382       .  S
C1619      F1627   1.383       .  S
C1619      F1628   1.383       .  S
C1619      F1629   1.385       .  S
C1633      C1634   1.400       .  A
C1633      C1638   1.404       .  A
C1633      H1643   1.083       .  S
C1634      C1639   1.491       .  S
C1634      C1635   1.419       .  A
C1635      C1636   1.414   1_545  A
C1635      C1640   1.518   1_545  S
C1636      C1637   1.405       .  A
C1636      H1641   1.083       .  S
C1637      C1638   1.417   1_565  A
C1638      C1642   1.517       .  S
C1639      C1644   1.417       .  A
C1639      C1648   1.401       .  A
C1640      F1656   1.382   1_565  S
C1640      F1657   1.382       .  S
C1640      F1658   1.384       .  S
C1642      F1653   1.384       .  S
C1642      F1654   1.377       .  S
C1642      F1655   1.384   1_545  S
C1644      C1645   1.410       .  A
C1644      C1649   1.520   1_545  S
C1645      C1646   1.408       .  A
C1645      H1650   1.080       .  S
C1646      C1647   1.424       .  A
C1647      C1648   1.409       .  A
C1647      C1651   1.519       .  S
C1648      H1652   1.083       .  S
C1649      F1662   1.384       .  S
C1649      F1663   1.382       .  S
C1649      F1664   1.383       .  S
C1651      F1659   1.382       .  S
C1651      F1660   1.384       .  S
C1651      F1661   1.385       .  S
C1665      C1666   1.405       .  A
C1665      C1670   1.415       .  A
C1665      H1675   1.083       .  S
C1666      C1671   1.489   1_655  S
C1666      C1667   1.416       .  A
C1667      C1668   1.404       .  A
C1667      C1672   1.522       .  S
C1668      C1669   1.405       .  A
C1668      H1673   1.082       .  S
C1669      C1670   1.420       .  A
C1670      C1674   1.517       .  S
C1671      C1676   1.417       .  A
C1671      C1680   1.401       .  A
C1672      F1688   1.382   1_655  S
C1672      F1689   1.382   1_655  S
C1672      F1690   1.385       .  S
C1674      F1685   1.382       .  S
C1674      F1686   1.385       .  S
C1674      F1687   1.384       .  S
C1676      C1677   1.411       .  A
C1676      C1681   1.519       .  S
C1677      C1678   1.406       .  A
C1677      H1682   1.083       .  S
C1678      C1679   1.418       .  A
C1679      C1680   1.406       .  A
C1679      C1683   1.516       .  S
C1680      H1684   1.084       .  S
C1681      F1694   1.384       .  S
C1681      F1695   1.383   1_455  S
C1681      F1696   1.382   1_455  S
C1683      F1691   1.384       .  S
C1683      F1692   1.383       .  S
C1683      F1693   1.383       .  S
C1697      C1698   1.401       .  A
C1697      C1702   1.406       .  A
C1697      H1707   1.085       .  S
C1698      C1703   1.492       .  S
C1698      C1699   1.417       .  A
C1699      C1700   1.412       .  A
C1699      C1704   1.518       .  S
C1700      C1701   1.406       .  A
C1700      H1705   1.082       .  S
C1701      C1702   1.418       .  A
C1702      C1706   1.512       .  S
C1703      C1708   1.417       .  A
C1703      C1712   1.407       .  A
C1704      F1720   1.382       .  S
C1704      F1721   1.382       .  S
C1704      F1722   1.384       .  S
C1706      F1717   1.381       .  S
C1706      F1718   1.383       .  S
C1706      F1719   1.381       .  S
C1708      C1709   1.408       .  A
C1708      C1713   1.521       .  S
C1709      C1710   1.405       .  A
C1709      H1714   1.083       .  S
C1710      C1711   1.412       .  A
C1711      C1712   1.412       .  A
C1711      C1715   1.515       .  S
C1712      H1716   1.082       .  S
C1713      F1726   1.384       .  S
C1713      F1727   1.381       .  S
C1713      F1728   1.382       .  S
C1715      F1723   1.384       .  S
C1715      F1724   1.383       .  S
C1715      F1725   1.383       .  S
C1729      C1730   1.402       .  A
C1729      C1734   1.411       .  A
C1729      H1739   1.083       .  S
C1730      C1735   1.490       .  S
C1730      C1731   1.413       .  A
C1731      C1732   1.406       .  A
C1731      C1736   1.520       .  S
C1732      C1733   1.412       .  A
C1732      H1737   1.082       .  S
C1733      C1734   1.427       .  A
C1734      C1738   1.521       .  S
C1735      C1740   1.417       .  A
C1735      C1744   1.402       .  A
C1736      F1752   1.381       .  S
C1736      F1753   1.383       .  S
C1736      F1754   1.384       .  S
C1738      F1749   1.383       .  S
C1738      F1750   1.385       .  S
C1738      F1751   1.378       .  S
C1740      C1741   1.410       .  A
C1740      C1745   1.519       .  S
C1741      C1742   1.407       .  A
C1741      H1746   1.083       .  S
C1742      C1743   1.417       .  A
C1743      C1744   1.406       .  A
C1743      C1747   1.516       .  S
C1744      H1748   1.083       .  S
C1745      F1758   1.385       .  S
C1745      F1759   1.381       .  S
C1745      F1760   1.382       .  S
C1747      F1755   1.383       .  S
C1747      F1756   1.383       .  S
C1747      F1757   1.384       .  S
C1761      C1762   1.402       .  A
C1761      C1766   1.415       .  A
C1761      H1771   1.083       .  S
C1762      C1767   1.492       .  S
C1762      C1763   1.416       .  A
C1763      C1764   1.409       .  A
C1763      C1768   1.522       .  S
C1764      C1765   1.407       .  A
C1764      H1769   1.080       .  S
C1765      C1766   1.424       .  A
C1766      C1770   1.517       .  S
C1767      C1772   1.414       .  A
C1767      C1776   1.399       .  A
C1768      F1784   1.383       .  S
C1768      F1785   1.381       .  S
C1768      F1786   1.383       .  S
C1770      F1781   1.379       .  S
C1770      F1782   1.385       .  S
C1770      F1783   1.383       .  S
C1772      C1773   1.409       .  A
C1772      C1777   1.520       .  S
C1773      C1774   1.410       .  A
C1773      H1778   1.083       .  S
C1774      C1775   1.431       .  A
C1775      C1776   1.412       .  A
C1775      C1779   1.521       .  S
C1776      H1780   1.083       .  S
C1777      F1790   1.384       .  S
C1777      F1791   1.383       .  S
C1777      F1792   1.381       .  S
C1779      F1787   1.385       .  S
C1779      F1788   1.385       .  S
C1779      F1789   1.382       .  S
C1793      C1794   1.403       .  A
C1793      C1798   1.415       .  A
C1793      H1803   1.082       .  S
C1794      C1799   1.487       .  S
C1794      C1795   1.413       .  A
C1795      C1796   1.403       .  A
C1795      C1800   1.524       .  S
C1796      C1797   1.411       .  A
C1796      H1801   1.081       .  S
C1797      C1798   1.423       .  A
C1798      C1802   1.517   1_545  S
C1799      C1804   1.415       .  A
C1799      C1808   1.402       .  A
C1800      F1816   1.382       .  S
C1800      F1817   1.382       .  S
C1800      F1818   1.384       .  S
C1802      F1813   1.384       .  S
C1802      F1814   1.382       .  S
C1802      F1815   1.382       .  S
C1804      C1805   1.411       .  A
C1804      C1809   1.518       .  S
C1805      C1806   1.406       .  A
C1805      H1810   1.083       .  S
C1806      C1807   1.412       .  A
C1807      C1808   1.406       .  A
C1807      C1811   1.507       .  S
C1808      H1812   1.083       .  S
C1809      F1822   1.384       .  S
C1809      F1823   1.383       .  S
C1809      F1824   1.382       .  S
C1811      F1819   1.384       .  S
C1811      F1820   1.383       .  S
C1811      F1821   1.382       .  S
C1825      C1826   1.400       .  A
C1825      C1830   1.405       .  A
C1825      H1835   1.084       .  S
C1826      C1831   1.487       .  S
C1826      C1827   1.417       .  A
C1827      C1828   1.410       .  A
C1827      C1832   1.519       .  S
C1828      C1829   1.406       .  A
C1828      H1833   1.083       .  S
C1829      C1830   1.420       .  A
C1830      C1834   1.517       .  S
C1831      C1836   1.415       .  A
C1831      C1840   1.405       .  A
C1832      F1848   1.382       .  S
C1832      F1849   1.383       .  S
C1832      F1850   1.384       .  S
C1834      F1845   1.383       .  S
C1834      F1846   1.384       .  S
C1834      F1847   1.384       .  S
C1836      C1837   1.402       .  A
C1836      C1841   1.522       .  S
C1837      C1838   1.406       .  A
C1837      H1842   1.084       .  S
C1838      C1839   1.418       .  A
C1839      C1840   1.415       .  A
C1839      C1843   1.515       .  S
C1840      H1844   1.083       .  S
C1841      F1854   1.385       .  S
C1841      F1855   1.382       .  S
C1841      F1856   1.382       .  S
C1843      F1851   1.385       .  S
C1843      F1852   1.383       .  S
C1843      F1853   1.381       .  S
C1857      C1858   1.395       .  A
C1857      C1862   1.400       .  A
C1857      H1867   1.084       .  S
C1858      C1863   1.477       .  S
C1858      C1859   1.414       .  A
C1859      C1860   1.408       .  A
C1859      C1864   1.518       .  S
C1860      C1861   1.406       .  A
C1860      H1865   1.083       .  S
C1861      C1862   1.428       .  A
C1862      C1866   1.523       .  S
C1863      C1868   1.417       .  A
C1863      C1872   1.395       .  A
C1864      F1880   1.383       .  S
C1864      F1881   1.381       .  S
C1864      F1882   1.384       .  S
C1866      F1877   1.383       .  S
C1866      F1878   1.385       .  S
C1866      F1879   1.383       .  S
C1868      C1869   1.411       .  A
C1868      C1873   1.519       .  S
C1869      C1870   1.403       .  A
C1869      H1874   1.083       .  S
C1870      C1871   1.420       .  A
C1871      C1872   1.399       .  A
C1871      C1875   1.517       .  S
C1872      H1876   1.083       .  S
C1873      F1886   1.384       .  S
C1873      F1887   1.383       .  S
C1873      F1888   1.382       .  S
C1875      F1883   1.385       .  S
C1875      F1884   1.382       .  S
C1875      F1885   1.381       .  S
