geometry optimzed in LAMMPS
_audit_creation_date              2020-12-01 
_audit_creation_method            'lammps2cif' 
_symmetry_space_group_name_H-M    'P1' 
_symmetry_Int_Tables_number       1 
_symmetry_cell_setting            triclinic 
loop_ 
_symmetry_equiv_pos_as_xyz 
  x,y,z 
_cell_length_a                    52.89179236 
_cell_length_b                    33.70893946701533 
_cell_length_c                    121.00927440973145 
_cell_angle_alpha                 90.1340483347313 
_cell_angle_beta                  89.99888151111737 
_cell_angle_gamma                 89.9488987936166 
loop_ 
_atom_site_label 
_atom_site_type_symbol 
_atom_site_fract_x 
_atom_site_fract_y 
_atom_site_fract_z 
_atom_site_charge 
O1          O  0.76209221  0.93410606  0.17697328    -0.69900
O2          O  0.70220702  0.99628931  0.18004086    -0.70200
O3          O  0.73012504  0.95115643  0.19357588    -0.70000
O4          O  0.73422449  0.98011560  0.16344667    -0.70000
O5          O  0.71127101  0.92911460  0.15889237    -0.70000
O6          O  0.70746289  0.89959347  0.18923655    -0.70000
O7          O  0.67970657  0.94460067  0.17565046    -0.70000
O8          O  0.73905309  0.88317076  0.17244583    -0.70100
V9          V  0.73177354  0.96438585  0.17841112     1.35200
V10         V  0.70987447  0.91507527  0.17413194     1.35200
C11         C  0.76054361  0.89793382  0.17425597     0.79300
C12         C  0.68081829  0.98063744  0.17838586     0.79300
C13         C  0.71791474  0.92089827  0.19653379     0.79200
C14         C  0.72307881  0.96012011  0.15610495     0.79200
O15         O  0.65610659  0.88872400  0.30532440    -0.69900
O16         O  0.71479197  0.82372467  0.30245498    -0.70200
O17         O  0.68253409  0.84076512  0.31890359    -0.70000
O18         O  0.68831590  0.87076645  0.28890038    -0.70000
O19         O  0.71179260  0.92104692  0.29356866    -0.70000
O20         O  0.70638523  0.89034664  0.32377865    -0.70000
O21         O  0.73817749  0.87408878  0.30714573    -0.70000
O22         O  0.67994708  0.93830825  0.31020763    -0.70100
V23         V  0.68583612  0.85700540  0.30400682     1.35200
V24         V  0.70855314  0.90502244  0.30859947     1.35200
C25         C  0.65825625  0.92471733  0.30814450     0.79300
C26         C  0.73643560  0.83826703  0.30425300     0.79300
C27         C  0.69388149  0.85980583  0.32638369     0.79200
C28         C  0.70124101  0.90051949  0.28612814     0.79200
O29         O  0.90268151  0.63097879  0.17513550    -0.69900
O30         O  0.96144040  0.56630288  0.17826246    -0.70200
O31         O  0.93429928  0.61292523  0.19172709    -0.70000
O32         O  0.92975236  0.58342150  0.16162460    -0.70000
O33         O  0.95350810  0.63340587  0.15704709    -0.70000
O34         O  0.95796134  0.66329583  0.18738266    -0.70000
O35         O  0.98482294  0.61686531  0.17380013    -0.70000
O36         O  0.92660973  0.68084546  0.17063081    -0.70100
V37         V  0.93244485  0.59941379  0.17657986     1.35200
V38         V  0.95520403  0.64766566  0.17228257     1.35200
C39         C  0.90487894  0.66709165  0.17249078     0.79300
C40         C  0.98309367  0.58103169  0.17662627     0.79300
C41         C  0.94711570  0.64260846  0.19467911     0.79200
C42         C  0.94121081  0.60280873  0.15427411     0.79200
O43         O  0.00636298  0.66458860  0.30342472    -0.69900
O44         O  0.94732361  0.72909698  0.30122018    -0.70200
O45         O  0.97998017  0.71121403  0.31742897    -0.70000
O46         O  0.97380191  0.68335201  0.28725656    -0.70000
O47         O  0.95062827  0.63246885  0.29163780    -0.70000
O48         O  0.95645472  0.66101116  0.32204279    -0.70000
O49         O  0.92425424  0.67813719  0.30563947    -0.70000
O50         O  0.98281263  0.61440462  0.30803413    -0.70100
V51         V  0.97646273  0.69604985  0.30243677     1.35200
V52         V  0.95404374  0.64744998  0.30676715     1.35200
C53         C  0.00440386  0.62837552  0.30599411     0.79300
C54         C  0.92578152  0.71418738  0.30300049     0.79300
C55         C  0.96892024  0.69144668  0.32481859     0.79200
C56         C  0.96104762  0.65358602  0.28431717     0.79200
O57         O  0.45212319  0.12882299  0.15761529    -0.69900
O58         O  0.45676738  0.16161897  0.18772388    -0.70200
O59         O  0.48565134  0.11882032  0.17398598    -0.70000
O60         O  0.42322870  0.17254641  0.17134803    -0.70000
O61         O  0.40313167  0.11938488  0.17646161    -0.70000
O62         O  0.46612468  0.06505039  0.17903512    -0.70000
O63         O  0.43699005  0.10795520  0.19266985    -0.70000
O64         O  0.43220506  0.07557744  0.16278977    -0.70100
V65         V  0.45400338  0.14443197  0.17274991     1.35200
V66         V  0.43494989  0.09304176  0.17762275     1.35200
C67         C  0.44165330  0.09625032  0.15516864     0.79300
C68         C  0.44787197  0.13987211  0.19528152     0.79300
C69         C  0.48654450  0.08312287  0.17701826     0.79200
C70         C  0.40269062  0.15541348  0.17357347     0.79200
O71         O  0.50808453  0.18259428  0.30373195    -0.69900
O72         O  0.44558392  0.23819340  0.30075421    -0.70200
O73         O  0.47899365  0.22741681  0.31716434    -0.70000
O74         O  0.47471576  0.19440741  0.28733913    -0.70000
O75         O  0.45444487  0.14119543  0.29228128    -0.70000
O76         O  0.45841346  0.17481923  0.32235593    -0.70000
O77         O  0.42550594  0.18488354  0.30576698    -0.70000
O78         O  0.48741259  0.13003852  0.30888777    -0.70100
V79         V  0.47650635  0.20959856  0.30236376     1.35200
V80         V  0.45690556  0.15872793  0.30724126     1.35200
C81         C  0.50815553  0.14664582  0.30671328     0.79300
C82         C  0.42496868  0.22055516  0.30270073     0.79300
C83         C  0.46904059  0.20730494  0.32477592     0.79200
C84         C  0.46362181  0.16268195  0.28472692     0.79200
O85         O  0.25322592  0.41036474  0.17626546    -0.69900
O86         O  0.19468364  0.47563408  0.17896431    -0.70200
O87         O  0.21994610  0.42659565  0.19238749    -0.70000
O88         O  0.22804271  0.46022129  0.16280188    -0.70000
O89         O  0.20445985  0.41141986  0.15712321    -0.70000
O90         O  0.19649954  0.37730513  0.18692919    -0.70000
O91         O  0.17143198  0.42624044  0.17341483    -0.70000
O92         O  0.22955701  0.36159278  0.17063562    -0.70100
V93         V  0.22356856  0.44221848  0.17747656     1.35200
V94         V  0.20099402  0.39505835  0.17211443     1.35200
C95         C  0.25113976  0.37473716  0.17310745     0.79300
C96         C  0.17312310  0.46160327  0.17672967     0.79300
C97         C  0.20668526  0.39669728  0.19469510     0.79200
C98         C  0.21731660  0.44206426  0.15498493     0.79200
O99         O  0.14765094  0.36128486  0.30360465    -0.69900
O100        O  0.20844630  0.30102404  0.30093441    -0.70200
O101        O  0.17592809  0.31669199  0.31740258    -0.70000
O102        O  0.18010091  0.34467283  0.28718355    -0.70000
O103        O  0.20186302  0.39726744  0.29144001    -0.70000
O104        O  0.19818865  0.36853680  0.32186322    -0.70000
O105        O  0.23013573  0.35370041  0.30518947    -0.70000
O106        O  0.16990553  0.41310276  0.30810464    -0.70100
V107        V  0.17840307  0.33195482  0.30238451     1.35200
V108        V  0.19953648  0.38216491  0.30658151     1.35200
C109        C  0.14867233  0.39763936  0.30617989     0.79300
C110        C  0.22958719  0.31753828  0.30255626     0.79300
C111        C  0.18677066  0.33723719  0.32471880     0.79200
C112        C  0.19180956  0.37535312  0.28417480     0.79200
O113        O  0.16659294  0.86084494  0.80337585    -0.69900
O114        O  0.22559713  0.79679461  0.80009521    -0.70200
O115        O  0.19496651  0.81591285  0.81696512    -0.70000
O116        O  0.19714295  0.84085735  0.78650797    -0.70000
O117        O  0.22069557  0.89225651  0.78999829    -0.70000
O118        O  0.21865195  0.86694709  0.82068649    -0.70000
O119        O  0.24889490  0.84840297  0.80368642    -0.70000
O120        O  0.19045218  0.91175867  0.80702096    -0.70100
V121        V  0.19648109  0.82963482  0.80181704     1.35200
V122        V  0.21915908  0.87888839  0.80528826     1.35200
C123        C  0.16870211  0.89729680  0.80569268     0.79300
C124        C  0.24723867  0.81209697  0.80131410     0.79300
C125        C  0.20672439  0.83666238  0.82395543     0.79200
C126        C  0.20952026  0.87028060  0.78306796     0.79200
O127        O  0.26518110  0.89073966  0.67369838    -0.69900
O128        O  0.20437044  0.95049451  0.67689692    -0.70200
O129        O  0.23306827  0.90623609  0.69032330    -0.70000
O130        O  0.23656739  0.93594712  0.66025326    -0.70000
O131        O  0.21448376  0.88413293  0.65559618    -0.70000
O132        O  0.21111257  0.85397111  0.68594485    -0.70000
O133        O  0.18264825  0.89811352  0.67239715    -0.70000
O134        O  0.24295155  0.83895772  0.66914098    -0.70100
V135        V  0.23441892  0.91980559  0.67518509     1.35200
V136        V  0.21328359  0.86975778  0.67083979     1.35200
C137        C  0.26419266  0.85449467  0.67101228     0.79300
C138        C  0.18321615  0.93409138  0.67523040     0.79300
C139        C  0.22129876  0.87553658  0.69326106     0.79200
C140        C  0.22577309  0.91570266  0.65286658     0.79200
O141        O  0.52364603  0.66818048  0.80451115    -0.69900
O142        O  0.46082955  0.72298738  0.80198149    -0.70200
O143        O  0.49450191  0.71138492  0.81827084    -0.70000
O144        O  0.49006479  0.68068716  0.78825983    -0.70000
O145        O  0.47008400  0.62687892  0.79292413    -0.70000
O146        O  0.47438643  0.65799560  0.82318112    -0.70000
O147        O  0.44108742  0.66907910  0.80675109    -0.70000
O148        O  0.50334273  0.61486920  0.80934512    -0.70100
V149        V  0.49191246  0.69475743  0.80336808     1.35200
V150        V  0.47266218  0.64322636  0.80797482     1.35200
C151        C  0.52395226  0.63200989  0.80725767     0.79300
C152        C  0.44033290  0.70492328  0.80384693     0.79300
C153        C  0.48497555  0.69032012  0.82578581     0.79200
C154        C  0.47913445  0.64899489  0.78548587     0.79200
O155        O  0.41877970  0.60439198  0.67728211    -0.69900
O156        O  0.48209269  0.55139345  0.68049349    -0.70200
O157        O  0.45236562  0.59499665  0.69370135    -0.70000
O158        O  0.44842442  0.55989317  0.66405390    -0.70000
O159        O  0.46809801  0.61297050  0.65857540    -0.70000
O160        O  0.47187820  0.64854416  0.68846411    -0.70000
O161        O  0.50136198  0.60502692  0.67515479    -0.70000
O162        O  0.43862654  0.65740540  0.67187279    -0.70100
V163        V  0.45075372  0.57871535  0.67876239     1.35200
V164        V  0.46956241  0.62996914  0.67360541     1.35200
C165        C  0.41815331  0.64011167  0.67411752     0.79300
C166        C  0.50243588  0.56961978  0.67843140     0.79300
C167        C  0.46299152  0.62729724  0.69613283     0.79200
C168        C  0.45781779  0.58007077  0.65632061     0.79200
O169        O  0.77736050  0.41940973  0.67650639    -0.69900
O170        O  0.71865861  0.48430418  0.67983350    -0.70200
O171        O  0.74708466  0.43999217  0.69338726    -0.70000
O172        O  0.74903937  0.46467196  0.66290866    -0.70000
O173        O  0.72504146  0.41391678  0.65927728    -0.70000
O174        O  0.72327765  0.38881637  0.68997105    -0.70000
O175        O  0.69510118  0.43291567  0.67633134    -0.70000
O176        O  0.75320559  0.36879136  0.67292643    -0.70100
V177        V  0.74762699  0.45107704  0.67807185     1.35200
V178        V  0.72467731  0.40207025  0.67467842     1.35200
C179        C  0.77504439  0.38289696  0.67428402     0.79300
C180        C  0.69692601  0.46921128  0.67869317     0.79300
C181        C  0.73469537  0.41063773  0.69686126     0.79200
C182        C  0.73702098  0.44408819  0.65596508     0.79200
O183        O  0.67319700  0.37606116  0.80460098    -0.69900
O184        O  0.73280603  0.31307058  0.80221696    -0.70200
O185        O  0.69875982  0.32703523  0.81820330    -0.70000
O186        O  0.70723682  0.36120979  0.78866904    -0.70000
O187        O  0.72990043  0.41116830  0.79428572    -0.70000
O188        O  0.72126682  0.37683515  0.82403995    -0.70000
O189        O  0.75509050  0.36321475  0.80800268    -0.70000
O190        O  0.69598172  0.42573281  0.81032052    -0.70100
V191        V  0.70337351  0.34534797  0.80355515     1.35200
V192        V  0.72505365  0.39330824  0.80907147     1.35200
C193        C  0.67468204  0.41179709  0.80772822     0.79300
C194        C  0.75405496  0.32787106  0.80462701     0.79300
C195        C  0.70896127  0.34556094  0.82609142     0.79200
C196        C  0.72027635  0.39144024  0.78644847     0.79200
O197        O  0.91387001  0.11113689  0.67700272    -0.69900
O198        O  0.97197856  0.04453475  0.67933574    -0.70200
O199        O  0.94714117  0.09353235  0.69303662    -0.70000
O200        O  0.93860716  0.06122587  0.66330016    -0.70000
O201        O  0.96259542  0.10971094  0.65780633    -0.70000
O202        O  0.97091278  0.14259516  0.68775902    -0.70000
O203        O  0.99556834  0.09373447  0.67399785    -0.70000
O204        O  0.93795699  0.15954788  0.67153984    -0.70100
V205        V  0.94330738  0.07858916  0.67805063     1.35200
V206        V  0.96623528  0.12548792  0.67286740     1.35200
C207        C  0.91625927  0.14681436  0.67395813     0.79300
C208        C  0.99363441  0.05821656  0.67709895     0.79300
C209        C  0.96063815  0.12309796  0.69545942     0.79200
C210        C  0.94950650  0.07937194  0.65554938     0.79200
O211        O  0.02567827  0.16304949  0.80417294    -0.69900
O212        O  0.96643356  0.22658131  0.80120879    -0.70200
O213        O  0.99863520  0.21039353  0.81772024    -0.70000
O214        O  0.99350732  0.18007611  0.78767342    -0.70000
O215        O  0.97039335  0.12935083  0.79224899    -0.70000
O216        O  0.97527382  0.16019305  0.82249531    -0.70000
O217        O  0.94347993  0.17572833  0.80583842    -0.70000
O218        O  0.00223926  0.11290483  0.80892517    -0.70100
V219        V  0.99566935  0.19400875  0.80279945     1.35200
V220        V  0.97335742  0.14548322  0.80729984     1.35200
C221        C  0.02382353  0.12704723  0.80696657     0.79300
C222        C  0.94492453  0.21156276  0.80297811     0.79300
C223        C  0.98746931  0.19100889  0.82515995     0.79200
C224        C  0.98085899  0.15004375  0.78484808     0.79200
O225        O  0.76381674  0.60426630  0.55252175    -0.69900
O226        O  0.70179247  0.54723001  0.55032420    -0.70200
O227        O  0.72952074  0.59155242  0.53655092    -0.70000
O228        O  0.73618491  0.55913664  0.56633889    -0.70000
O229        O  0.71558818  0.61155926  0.57176752    -0.70000
O230        O  0.70885894  0.64417927  0.54178218    -0.70000
O231        O  0.68147322  0.60002167  0.55568515    -0.70000
O232        O  0.74292030  0.65652666  0.55785905    -0.70100
V233        V  0.73247031  0.57656530  0.55155409     1.35200
V234        V  0.71265673  0.62705586  0.55668534     1.35200
C235        C  0.76367897  0.64029331  0.55545795     0.79300
C236        C  0.68113048  0.56435218  0.55256049     0.79300
C237        C  0.71788682  0.62298179  0.53410483     0.79200
C238        C  0.72683233  0.57951838  0.57407871     0.79200
O239        O  0.65579765  0.67669023  0.42621498    -0.69900
O240        O  0.71817609  0.73257019  0.42924605    -0.70200
O241        O  0.68444446  0.72243557  0.41290183    -0.70000
O242        O  0.68942305  0.68782489  0.44252967    -0.70000
O243        O  0.70985107  0.63508750  0.43721118    -0.70000
O244        O  0.70502788  0.67017050  0.40734796    -0.70000
O245        O  0.73832518  0.67970646  0.42382420    -0.70000
O246        O  0.67656537  0.62452219  0.42072344    -0.70100
V247        V  0.68730662  0.70385239  0.42759740     1.35200
V248        V  0.70698882  0.65337794  0.42236463     1.35200
C249        C  0.65581035  0.64083766  0.42309366     0.79300
C250        C  0.73881701  0.71519511  0.42709978     0.79300
C251        C  0.69422514  0.70269114  0.40514087     0.79200
C252        C  0.70062819  0.65597424  0.44491536     0.79200
O253        O  0.01418667  0.86390859  0.42621183    -0.69900
O254        O  0.95495443  0.80008361  0.42911932    -0.70200
O255        O  0.98646585  0.81796133  0.41248357    -0.70000
O256        O  0.98275734  0.84499292  0.44279497    -0.70000
O257        O  0.95947566  0.89630097  0.43887283    -0.70000
O258        O  0.96288658  0.86868618  0.40833185    -0.70000
O259        O  0.93187696  0.85155216  0.42513366    -0.70000
O260        O  0.99052289  0.91455430  0.42208222    -0.70100
V261        V  0.98420056  0.83276046  0.42755187     1.35200
V262        V  0.96171341  0.88182010  0.42366382     1.35200
C263        C  0.01219782  0.90029735  0.42381012     0.79300
C264        C  0.93336658  0.81541212  0.42767803     0.79300
C265        C  0.97486088  0.83802671  0.40531291     0.79200
C266        C  0.97030414  0.87476817  0.44599108     0.79200
O267        O  0.91024000  0.90095525  0.55431367    -0.69900
O268        O  0.97077646  0.96189478  0.55277021    -0.70200
O269        O  0.94415448  0.91770932  0.53851736    -0.70000
O270        O  0.93681436  0.94600601  0.56862142    -0.70000
O271        O  0.95891660  0.89447742  0.57348956    -0.70000
O272        O  0.96588567  0.86551579  0.54315915    -0.70000
O273        O  0.99243150  0.90965062  0.55744415    -0.70000
O274        O  0.93234854  0.84943149  0.55918970    -0.70100
V275        V  0.94086901  0.93060399  0.55366757     1.35200
V276        V  0.96191167  0.88073830  0.55824677     1.35200
C277        C  0.91122890  0.86466642  0.55689643     0.79300
C278        C  0.99185839  0.94572660  0.55475832     0.79300
C279        C  0.95642372  0.88723078  0.53572066     0.79200
C280        C  0.94699986  0.92563409  0.57613000     0.79200
O281        O  0.15370338  0.16917560  0.42738760    -0.69900
O282        O  0.21256146  0.23415903  0.42965017    -0.70200
O283        O  0.17999325  0.21593617  0.41341697    -0.70000
O284        O  0.18620259  0.18831920  0.44361725    -0.70000
O285        O  0.20962773  0.13764403  0.43919231    -0.70000
O286        O  0.20363630  0.16575184  0.40879058    -0.70000
O287        O  0.23578791  0.18331195  0.42517204    -0.70000
O288        O  0.17746523  0.11909165  0.42279200    -0.70100
V289        V  0.18351472  0.20088414  0.42841851     1.35200
V290        V  0.20611148  0.15239420  0.42406430     1.35200
C291        C  0.15579436  0.13293064  0.42479705     0.79300
C292        C  0.23415363  0.21940880  0.42780113     0.79300
C293        C  0.19115037  0.19616323  0.40601816     0.79200
C294        C  0.19912346  0.15869871  0.44654031     0.79200
O295        O  0.26300234  0.11343400  0.55453283    -0.69900
O296        O  0.20393084  0.04968246  0.55147614    -0.70200
O297        O  0.22983197  0.09864481  0.53824709    -0.70000
O298        O  0.23715230  0.06354958  0.56775300    -0.70000
O299        O  0.21385876  0.11259759  0.57353390    -0.70000
O300        O  0.20675857  0.14829047  0.54379867    -0.70000
O301        O  0.18103459  0.09944211  0.55710092    -0.70000
O302        O  0.23962735  0.16246017  0.56027275    -0.70100
V303        V  0.23308899  0.08233242  0.55312752     1.35200
V304        V  0.21083427  0.12979080  0.55858122     1.35200
C305        C  0.26113573  0.14894641  0.55782337     0.79300
C306        C  0.18247743  0.06410530  0.55375065     0.79300
C307        C  0.21686048  0.12894560  0.53599068     0.79200
C308        C  0.22631129  0.08142537  0.57559589     0.79200
O309        O  0.40662372  0.41158301  0.55553333    -0.69900
O310        O  0.46644468  0.47334519  0.55216500    -0.70200
O311        O  0.43694885  0.43082204  0.53857841    -0.70000
O312        O  0.43609742  0.45487022  0.56914284    -0.70000
O313        O  0.45920923  0.40287518  0.57251571    -0.70000
O314        O  0.45972684  0.37830601  0.54176379    -0.70000
O315        O  0.48909754  0.42071290  0.55537901    -0.70000
O316        O  0.42978234  0.35962367  0.55889629    -0.70100
V317        V  0.43691982  0.44160544  0.55393274     1.35200
V318        V  0.45895066  0.39135420  0.55708781     1.35200
C319        C  0.40822875  0.37499041  0.55769600     0.79300
C320        C  0.48789304  0.45717109  0.55316768     0.79300
C321        C  0.44867694  0.40089593  0.53497723     0.79200
C322        C  0.44788655  0.43353938  0.57596822     0.79200
O323        O  0.50671136  0.38312968  0.42577953    -0.69900
O324        O  0.44642672  0.32141459  0.42779552    -0.70200
O325        O  0.47918872  0.33892281  0.41159339    -0.70000
O326        O  0.47401273  0.36464225  0.44195030    -0.70000
O327        O  0.45159103  0.41681853  0.43796272    -0.70000
O328        O  0.45674102  0.39080417  0.40735531    -0.70000
O329        O  0.42432328  0.37379066  0.42367686    -0.70000
O330        O  0.48404298  0.43487958  0.42164393    -0.70100
V331        V  0.47620858  0.35307308  0.42668325     1.35200
V332        V  0.45467595  0.40310459  0.42272499     1.35200
C333        C  0.50540870  0.41966671  0.42347492     0.79300
C334        C  0.42515706  0.33751295  0.42612981     0.79300
C335        C  0.46847555  0.35988869  0.40435866     0.79200
C336        C  0.46168472  0.39458415  0.44511944     0.79200
O337        O  0.16735509  0.67091378  0.92604536    -0.69900
O338        O  0.22937011  0.72749019  0.92925322    -0.70200
O339        O  0.19638885  0.71586418  0.91270383    -0.70000
O340        O  0.20027818  0.68348461  0.94256994    -0.70000
O341        O  0.22112721  0.63057767  0.93771765    -0.70000
O342        O  0.21735999  0.66335936  0.90762531    -0.70000
O343        O  0.24995896  0.67445749  0.92429306    -0.70000
O344        O  0.18852290  0.61851723  0.92103395    -0.70100
V345        V  0.19870349  0.69839759  0.92753028     1.35200
V346        V  0.21877919  0.64772856  0.92274820     1.35200
C347        C  0.16761628  0.63488145  0.92310371     0.79300
C348        C  0.25015703  0.71019107  0.92736078     0.79300
C349        C  0.20654174  0.69560146  0.90513824     0.79200
C350        C  0.21154755  0.65196487  0.94522901     0.79200
O351        O  0.26480507  0.61519813  0.05457709    -0.69900
O352        O  0.20304031  0.55774055  0.05172397    -0.70200
O353        O  0.23240900  0.59974718  0.03802963    -0.70000
O354        O  0.23548569  0.57232985  0.06829250    -0.70000
O355        O  0.21412302  0.62534071  0.07259109    -0.70000
O356        O  0.21140373  0.65333223  0.04211088    -0.70000
O357        O  0.18216434  0.61141332  0.05584426    -0.70000
O358        O  0.24338593  0.66816803  0.05885933    -0.70100
V359        V  0.23357313  0.58731077  0.05325344     1.35200
V360        V  0.21323509  0.63855719  0.05728412     1.35200
C361        C  0.26439080  0.65161343  0.05711628     0.79300
C362        C  0.18215149  0.57520615  0.05323809     0.79300
C363        C  0.22121147  0.63079826  0.03492395     0.79200
C364        C  0.22499573  0.59365723  0.07553505     0.79200
O365        O  0.66943684  0.16295927  0.92591414    -0.76300
O366        O  0.72995638  0.22370706  0.92858697    -0.70200
O367        O  0.69715026  0.20846392  0.91221746    -0.70000
O368        O  0.70210912  0.17911408  0.94227534    -0.70000
O369        O  0.72410176  0.12696446  0.93776738    -0.70000
O370        O  0.71956675  0.15705990  0.90745468    -0.70000
O371        O  0.75184823  0.17149208  0.92403932    -0.70000
O372        O  0.69186774  0.11156300  0.92115480    -0.70100
V373        V  0.70004991  0.19252823  0.92714422     1.35200
V374        V  0.72136657  0.14274346  0.92268019     1.35200
C375        C  0.67058617  0.12676686  0.92317500     0.79300
C376        C  0.75115432  0.20753252  0.92679870     0.79300
C377        C  0.70785274  0.18832713  0.90477630     0.79200
C378        C  0.71402667  0.14843239  0.94513994     0.79200
O379        O  0.71092279  0.13737263  0.07268487    -0.69900
O380        O  0.70868547  0.16237024  0.04197324    -0.70200
O381        O  0.67975352  0.12054375  0.05588633    -0.70000
O382        O  0.73981777  0.18016615  0.05879433    -0.70000
O383        O  0.76230003  0.12777778  0.05502640    -0.70000
O384        O  0.70166191  0.06739727  0.05229371    -0.70000
O385        O  0.73073536  0.10933003  0.03843346    -0.70000
O386        O  0.73334052  0.08494511  0.06888889    -0.70100
V387        V  0.71027640  0.14912565  0.05727480     1.35200
V388        V  0.73162190  0.09841526  0.05374460     1.35200
C389        C  0.72224019  0.10643033  0.07591391     0.79300
C390        C  0.71916828  0.13961254  0.03502171     0.79300
C391        C  0.68044629  0.08407855  0.05361282     0.79200
C392        C  0.76114697  0.16439042  0.05728123     0.79200
O393        O  0.52449847  0.86548660  0.92744957    -0.69900
O394        O  0.46470678  0.80307567  0.93008979    -0.70200
O395        O  0.49775105  0.81817203  0.91380344    -0.70000
O396        O  0.49152849  0.84962140  0.94372891    -0.70000
O397        O  0.46886027  0.90051712  0.93883226    -0.70000
O398        O  0.47500286  0.86872814  0.90871512    -0.70000
O399        O  0.44230377  0.85414853  0.92510281    -0.70000
O400        O  0.50157550  0.91592969  0.92242226    -0.70100
V401        V  0.49423272  0.83510024  0.92865982     1.35200
V402        V  0.47242985  0.88387252  0.92385429     1.35200
C403        C  0.52299365  0.90144477  0.92456247     0.79300
C404        C  0.44337302  0.81837957  0.92806660     0.79300
C405        C  0.48711941  0.83762281  0.90622189     0.79200
C406        C  0.47896345  0.87999489  0.94636771     0.79200
O407        O  0.41076442  0.91106475  0.05444706    -0.69900
O408        O  0.46834997  0.97846020  0.05205628    -0.70200
O409        O  0.44340935  0.92999284  0.03830291    -0.70000
O410        O  0.43565708  0.96045654  0.06821423    -0.70000
O411        O  0.46002513  0.91186113  0.07335206    -0.70000
O412        O  0.46772397  0.88100779  0.04320529    -0.70000
O413        O  0.49239996  0.92929512  0.05707003    -0.70000
O414        O  0.43527465  0.86253383  0.05950252    -0.70100
V415        V  0.43995559  0.94399035  0.05336822     1.35200
V416        V  0.46331882  0.89706348  0.05819964     1.35200
C417        C  0.41343273  0.87521689  0.05728321     0.79300
C418        C  0.49014355  0.96494464  0.05412185     0.79300
C419        C  0.45713675  0.90090443  0.03566199     0.79200
C420        C  0.44691198  0.94200444  0.07581419     0.79200
O421        O  0.97301866  0.37339143  0.90736851    -0.69900
O422        O  0.96667882  0.40566645  0.93743230    -0.70200
O423        O  0.99887629  0.42222636  0.92091849    -0.70000
O424        O  0.94084919  0.35780914  0.92387343    -0.70000
O425        O  0.96425800  0.30791576  0.92890632    -0.70000
O426        O  0.02282067  0.37303318  0.92599694    -0.70000
O427        O  0.99036218  0.35597777  0.94237774    -0.70000
O428        O  0.99678903  0.32407671  0.91251219    -0.70100
V429        V  0.97038092  0.38884734  0.92248199     1.35200
V430        V  0.99315957  0.34124338  0.92733437     1.35200
C431        C  0.98564621  0.34274317  0.90491995     0.79300
C432        C  0.97718337  0.38573089  0.94498427     0.79300
C433        C  0.02058047  0.40886403  0.92307000     0.79200
C434        C  0.94261928  0.32220649  0.92691975     0.79200
O435        O  0.90638229  0.42698126  0.05283304    -0.69900
O436        O  0.96683323  0.48803127  0.05050958    -0.70200
O437        O  0.93979581  0.44251629  0.03670264    -0.70000
O438        O  0.93330457  0.47331491  0.06665062    -0.70000
O439        O  0.95555434  0.42219795  0.07172809    -0.70000
O440        O  0.96180937  0.39089089  0.04158078    -0.70000
O441        O  0.98864442  0.43626076  0.05544000    -0.70000
O442        O  0.92876060  0.37596447  0.05788309    -0.70100
V443        V  0.93695835  0.45669827  0.05178328     1.35200
V444        V  0.95821028  0.40730635  0.05657247     1.35200
C445        C  0.90752163  0.39095821  0.05569207     0.79300
C446        C  0.98798717  0.47209809  0.05252607     0.79300
C447        C  0.95207690  0.41188159  0.03405302     0.79200
C448        C  0.94359842  0.45344310  0.07423310     0.79200
C449        C  0.96144689  0.39829268  0.00099821     0.18900
C450        C  0.97953241  0.42311836  0.99614377    -0.10300
C451        C  0.98243180  0.42372609  0.98466384    -0.11100
C452        C  0.96719002  0.39959605  0.97799879     0.20400
C453        C  0.94907337  0.37480975  0.98285080    -0.13100
C454        C  0.94617296  0.37420264  0.99433323    -0.11400
C455        C  0.97066278  0.39908072  0.96622068     0.01400
C456        C  0.97363868  0.39541343  0.95640559    -0.31400
C457        C  0.95813176  0.39864676  0.01278519     0.02800
C458        C  0.95539513  0.40225542  0.02261511    -0.33100
H459        H  0.99134326  0.44202131  0.00123051     0.13800
H460        H  0.99657551  0.44284089  0.98099739     0.13600
H461        H  0.93727936  0.35588358  0.97776327     0.13500
H462        H  0.93204496  0.35506516  0.99800203     0.12500
C463        C  0.46631973  0.89005110  0.00252188     0.18900
C464        C  0.49003097  0.89654245  0.99769321    -0.10300
C465        C  0.49233772  0.89844824  0.98619271    -0.11100
C466        C  0.47092416  0.89404756  0.97948526     0.20400
C467        C  0.44719814  0.88779059  0.98431917    -0.13100
C468        C  0.44489309  0.88588028  0.99581505    -0.11400
C469        C  0.47348141  0.89371935  0.96765429     0.01400
C470        C  0.47582048  0.88990043  0.95780586    -0.31400
C471        C  0.46377207  0.88932006  0.01435144     0.02800
C472        C  0.46106887  0.89197181  0.02421082    -0.33100
H473        H  0.50668781  0.90012651  0.00280915     0.13800
H474        H  0.51079863  0.90303794  0.98253445     0.13600
H475        H  0.43054765  0.88408965  0.97920543     0.13500
H476        H  0.42644040  0.88116968  0.99946961     0.12500
C477        C  0.55864761  0.01752073  0.05240252     0.18900
C478        C  0.57205476  0.01825513  0.04241784    -0.10300
C479        C  0.59768250  0.02843829  0.04234988    -0.11100
C480        C  0.60998694  0.03769564  0.05227560     0.20400
C481        C  0.59653060  0.03719200  0.06224510    -0.13100
C482        C  0.57092667  0.02703708  0.06231241    -0.11400
C483        C  0.63610800  0.04936322  0.05223995     0.01400
C484        C  0.65721624  0.06262919  0.05262592    -0.31400
C485        C  0.53284806  0.00424068  0.05260884     0.02800
C486        C  0.51231480  0.98897060  0.05311551    -0.33100
H487        H  0.56277916  0.01057232  0.03472325     0.13800
H488        H  0.60788156  0.02904441  0.03458800     0.13600
H489        H  0.60583473  0.04460414  0.06995485     0.13500
H490        H  0.56078783  0.02619044  0.07008874     0.12500
C491        C  0.81748295  0.24567967  0.05769509     0.18900
C492        C  0.81198419  0.27920695  0.05129248    -0.10300
C493        C  0.82873308  0.31125890  0.05108535    -0.11100
C494        C  0.85103015  0.30996074  0.05730613     0.20400
C495        C  0.85650374  0.27648611  0.06373913    -0.13100
C496        C  0.83974459  0.24441390  0.06394646    -0.11400
C497        C  0.86881643  0.34216054  0.05679432     0.01400
C498        C  0.88536724  0.36662964  0.05629544    -0.31400
C499        C  0.79992070  0.21313069  0.05793812     0.02800
C500        C  0.78338577  0.18856420  0.05782702    -0.33100
H501        H  0.79476748  0.28053183  0.04645463     0.13800
H502        H  0.82437998  0.33688263  0.04604031     0.13600
H503        H  0.87377705  0.27510605  0.06853637     0.13500
H504        H  0.84414159  0.21870878  0.06895130     0.12500
C505        C  0.87324673  0.27250772  0.92875139     0.18900
C506        C  0.86240665  0.25602923  0.91923555    -0.10300
C507        C  0.83671107  0.24643960  0.91908854    -0.11100
C508        C  0.82171548  0.25344498  0.92843851     0.20400
C509        C  0.83255661  0.26980760  0.93797370    -0.13100
C510        C  0.85827839  0.27942424  0.93811911    -0.11400
C511        C  0.79550423  0.24220053  0.92832599     0.01400
C512        C  0.77437114  0.22902900  0.92785114    -0.31400
C513        C  0.89925864  0.28481148  0.92862798     0.02800
C514        C  0.92007287  0.29912777  0.92808941    -0.33100
H515        H  0.87375261  0.25093510  0.91191225     0.13800
H516        H  0.82854030  0.23355656  0.91169625     0.13600
H517        H  0.82116041  0.27510087  0.94526979     0.13500
H518        H  0.86643357  0.29253471  0.94548244     0.12500
C519        C  0.61379312  0.04598189  0.92273865     0.18900
C520        C  0.59765938  0.03936767  0.91374135    -0.10300
C521        C  0.58071092  0.00752121  0.91390923    -0.11100
C522        C  0.57990226  0.98208785  0.92305269     0.20400
C523        C  0.59610207  0.98863577  0.93202664    -0.13100
C524        C  0.61303393  0.02046115  0.93185978    -0.11400
C525        C  0.56166627  0.95045592  0.92343577     0.01400
C526        C  0.54497274  0.92619270  0.92389584    -0.31400
C527        C  0.63175557  0.07802062  0.92252422     0.02800
C528        C  0.64840583  0.10241369  0.92265112    -0.33100
H529        H  0.59819030  0.05876115  0.90661894     0.13800
H530        H  0.56815488  0.00286660  0.90695240     0.13600
H531        H  0.59553684  0.96931663  0.93916500     0.13500
H532        H  0.62553610  0.02516161  0.93883363     0.12500
C533        C  0.71739562  0.14580131  0.00155666     0.18900
C534        C  0.69935105  0.16650844  0.99537039    -0.10300
C535        C  0.69913491  0.16317284  0.98385080    -0.11100
C536        C  0.71691297  0.13905224  0.97846692     0.20400
C537        C  0.73495040  0.11830504  0.98465204    -0.13100
C538        C  0.73516411  0.12163776  0.99617743    -0.11400
C539        C  0.71701512  0.13693563  0.96658939     0.01400
C540        C  0.71625121  0.13924425  0.95665775    -0.31400
C541        C  0.71731883  0.14825724  0.01342815     0.02800
C542        C  0.71773904  0.14694363  0.02337762    -0.33100
H543        H  0.68546185  0.18511992  0.99944239     0.13800
H544        H  0.68517741  0.17950452  0.97913797     0.13600
H545        H  0.74885447  0.09973431  0.98057600     0.13500
H546        H  0.74913363  0.10534570  0.00089355     0.12500
C547        C  0.05891830  0.51610272  0.05110603     0.18900
C548        C  0.07376597  0.50635798  0.06029730    -0.10300
C549        C  0.09966318  0.51446381  0.06028007    -0.11100
C550        C  0.11086320  0.53221965  0.05105203     0.20400
C551        C  0.09604661  0.54188968  0.04183518    -0.13100
C552        C  0.07010805  0.53374592  0.04184950    -0.11400
C553        C  0.13719966  0.54267806  0.05133551     0.01400
C554        C  0.15851923  0.55497193  0.05201092    -0.31400
C555        C  0.03249366  0.50616066  0.05107676     0.02800
C556        C  0.01122254  0.49354095  0.05150971    -0.33100
H557        H  0.06532504  0.49243024  0.06746429     0.13800
H558        H  0.11090172  0.50717351  0.06748192     0.13600
H559        H  0.10450004  0.55594156  0.03469154     0.13500
H560        H  0.05882830  0.54112065  0.03466824     0.12500
C561        C  0.32284409  0.72937150  0.05841764     0.18900
C562        C  0.31665955  0.76611534  0.06315821    -0.10300
C563        C  0.33416531  0.79719479  0.06305005    -0.11100
C564        C  0.35793737  0.79169916  0.05818389     0.20400
C565        C  0.36417063  0.75490061  0.05348499    -0.13100
C566        C  0.34665630  0.72381298  0.05359083    -0.11400
C567        C  0.37603606  0.82358867  0.05803264     0.01400
C568        C  0.39227633  0.84866230  0.05777726    -0.31400
C569        C  0.30430801  0.69811750  0.05816710     0.02800
C570        C  0.28712966  0.67465669  0.05778752    -0.33100
H571        H  0.29824529  0.77081189  0.06686222     0.13800
H572        H  0.32914422  0.82547778  0.06671603     0.13600
H573        H  0.38251758  0.75030786  0.04970861     0.13500
H574        H  0.35159995  0.69562237  0.04985043     0.12500
C575        C  0.37299193  0.77229451  0.92956801     0.18900
C576        C  0.35586188  0.79464532  0.92330474    -0.10300
C577        C  0.33015490  0.78515972  0.92336462    -0.11100
C578        C  0.32144541  0.75333318  0.92971581     0.20400
C579        C  0.33855448  0.73099096  0.93600475    -0.13100
C580        C  0.36430023  0.74049612  0.93594685    -0.11400
C581        C  0.29519972  0.74235912  0.92936645     0.01400
C582        C  0.27387967  0.73009100  0.92866427    -0.31400
C583        C  0.39930831  0.78292282  0.92954351     0.02800
C584        C  0.42040467  0.79624452  0.92910401    -0.33100
H585        H  0.36239433  0.81937954  0.91836862     0.13800
H586        H  0.31712590  0.80242788  0.91841121     0.13600
H587        H  0.33201647  0.70611454  0.94088167     0.13500
H588        H  0.37737361  0.72310725  0.94084293     0.12500
C589        C  0.07568777  0.49265587  0.92197181     0.18900
C590        C  0.09711573  0.49125788  0.91518417    -0.10300
C591        C  0.11403127  0.52313498  0.91505009    -0.11100
C592        C  0.10956790  0.55659290  0.92167737     0.20400
C593        C  0.08805817  0.55808958  0.92841567    -0.13100
C594        C  0.07113955  0.52621569  0.92854798    -0.11400
C595        C  0.12779224  0.58828201  0.92195394     0.01400
C596        C  0.14484848  0.61194538  0.92237567    -0.31400
C597        C  0.05812240  0.46005673  0.92212462     0.02800
C598        C  0.04201126  0.43480135  0.92244212    -0.33100
H599        H  0.10078677  0.46553303  0.91004431     0.13800
H600        H  0.13070285  0.52154624  0.90986377     0.13600
H601        H  0.08450192  0.58366464  0.93362868     0.13500
H602        H  0.05457990  0.52765734  0.93380578     0.12500
C603        C  0.21723113  0.64159657  0.00156865     0.18900
C604        C  0.19694471  0.62329723  0.99613122    -0.10300
C605        C  0.19641087  0.62161170  0.98458527    -0.11100
C606        C  0.21621542  0.63807671  0.97843548     0.20400
C607        C  0.23651400  0.65633694  0.98387459    -0.13100
C608        C  0.23704716  0.65802419  0.99541963    -0.11400
C609        C  0.21513365  0.63810213  0.96655918     0.01400
C610        C  0.21378322  0.64175470  0.95667455    -0.31400
C611        C  0.21817189  0.64203072  0.01344596     0.02800
C612        C  0.21932574  0.63928737  0.02335808    -0.33100
H613        H  0.18159917  0.61028415  0.00081310     0.13800
H614        H  0.18053463  0.60769592  0.98046122     0.13600
H615        H  0.25183165  0.66943296  0.97919322     0.13500
H616        H  0.25289445  0.67202413  0.99954306     0.12500
C617        C  0.45538565  0.40073982  0.47847853     0.18900
C618        C  0.47279041  0.37730127  0.48427544    -0.10300
C619        C  0.47113633  0.37405953  0.49576967    -0.11100
C620        C  0.45201588  0.39415507  0.50150943     0.20400
C621        C  0.43454716  0.41747194  0.49571017    -0.13100
C622        C  0.43620170  0.42071464  0.48421230    -0.11400
C623        C  0.45085176  0.39224379  0.51337024     0.01400
C624        C  0.44990010  0.39383851  0.52330900    -0.31400
C625        C  0.45694515  0.40326772  0.46663448     0.02800
C626        C  0.45879691  0.40197063  0.45671616    -0.33100
H627        H  0.48762504  0.36156477  0.47990968     0.13800
H628        H  0.48481083  0.35611855  0.50017544     0.13600
H629        H  0.41976042  0.43329665  0.50008155     0.13500
H630        H  0.42257537  0.43874581  0.47980753     0.12500
C631        C  0.31696528  0.23135337  0.55913907     0.18900
C632        C  0.30842223  0.27050076  0.55794448    -0.10300
C633        C  0.32567998  0.30190859  0.55798371    -0.11100
C634        C  0.35154348  0.29426241  0.55922887     0.20400
C635        C  0.36006803  0.25513228  0.56047357    -0.13100
C636        C  0.34281516  0.22373162  0.56043178    -0.11400
C637        C  0.36953237  0.32621213  0.55898159     0.01400
C638        C  0.38618607  0.35051616  0.55854111    -0.31400
C639        C  0.29911989  0.19919900  0.55890858     0.02800
C640        C  0.28277162  0.17437006  0.55852165    -0.33100
H641        H  0.28845424  0.27669759  0.55692667     0.13800
H642        H  0.31889786  0.33202347  0.55698094     0.13600
H643        H  0.38005363  0.24890293  0.56140745     0.13500
H644        H  0.34962081  0.19359349  0.56134828     0.12500
C645        C  0.35491474  0.29005098  0.42799492     0.18900
C646        C  0.34147503  0.29169203  0.43796961    -0.10300
C647        C  0.31584010  0.28149610  0.43822602    -0.11100
C648        C  0.30353532  0.26982604  0.42849570     0.20400
C649        C  0.31697020  0.26831629  0.41852270    -0.13100
C650        C  0.34257995  0.27848053  0.41826776    -0.11400
C651        C  0.27757305  0.25716784  0.42878371     0.01400
C652        C  0.25677880  0.24259902  0.42859761    -0.31400
C653        C  0.38098094  0.30213729  0.42761777     0.02800
C654        C  0.40200946  0.31571478  0.42705798    -0.33100
H655        H  0.35078375  0.30092512  0.44552353     0.13800
H656        H  0.30568391  0.28247325  0.44599678     0.13600
H657        H  0.30768906  0.25903882  0.41096527     0.13500
H658        H  0.35273059  0.27742530  0.41049515     0.12500
C659        C  0.20892012  0.14599360  0.50296993     0.18900
C660        C  0.22710694  0.16612086  0.49671141    -0.10300
C661        C  0.22561700  0.16602989  0.48516732    -0.11100
C662        C  0.20598931  0.14569116  0.47982502     0.20400
C663        C  0.18779777  0.12557304  0.48608416    -0.13100
C664        C  0.18928712  0.12566571  0.49762795    -0.11400
C665        C  0.20407640  0.14665276  0.46795637     0.01400
C666        C  0.20209002  0.15009505  0.45807604    -0.31400
C667        C  0.21102040  0.14457197  0.51482685     0.02800
C668        C  0.21332444  0.14000837  0.52465614    -0.33100
H669        H  0.24247221  0.18168682  0.50074656     0.13800
H670        H  0.23972126  0.18184680  0.48041306     0.13600
H671        H  0.17247438  0.10990773  0.48204824     0.13500
H672        H  0.17522474  0.10975161  0.50238105     0.12500
C673        C  0.11323757  0.01378662  0.55217461     0.18900
C674        C  0.09684321  0.02540811  0.54367708    -0.10300
C675        C  0.07130615  0.01481552  0.54407509    -0.11100
C676        C  0.06210665  0.99274599  0.55300048     0.20400
C677        C  0.07853016  0.98101818  0.56146983    -0.13100
C678        C  0.10404128  0.99158771  0.56107029    -0.11400
C679        C  0.03606637  0.98080588  0.55335121     0.01400
C680        C  0.01506248  0.96725387  0.55389276    -0.31400
C681        C  0.13907056  0.02683076  0.55213707     0.02800
C682        C  0.15981340  0.04137166  0.55259569    -0.33100
H683        H  0.10374863  0.04291446  0.53681449     0.13800
H684        H  0.05877463  0.02382566  0.53745697     0.13600
H685        H  0.07160604  0.96374781  0.56837627     0.13500
H686        H  0.11651996  0.98278868  0.56773070     0.12500
C687        C  0.10050397  0.04919518  0.42372781     0.18900
C688        C  0.10398707  0.01827280  0.41610326    -0.10300
C689        C  0.08749367  0.98581448  0.41601086    -0.11100
C690        C  0.06746062  0.98404144  0.42356584     0.20400
C691        C  0.06397871  0.01496721  0.43119110    -0.13100
C692        C  0.08046978  0.04742101  0.43128335    -0.11400
C693        C  0.05001837  0.95119182  0.42334978     0.01400
C694        C  0.03385964  0.92592493  0.42337821    -0.31400
C695        C  0.11804837  0.08189883  0.42402083     0.02800
C696        C  0.13422558  0.10711295  0.42432720    -0.33100
H697        H  0.11949658  0.01919624  0.41026126     0.13800
H698        H  0.09033376  0.96219147  0.41005190     0.13600
H699        H  0.04849940  0.01401091  0.43704859     0.13500
H700        H  0.07765713  0.07100479  0.43725752     0.12500
C701        C  0.96375743  0.87782855  0.50247230     0.18900
C702        C  0.95495252  0.84621121  0.49601518    -0.10300
C703        C  0.95585222  0.84861792  0.48448646    -0.11100
C704        C  0.96549290  0.88267772  0.47937111     0.20400
C705        C  0.97436412  0.91424933  0.48582721    -0.13100
C706        C  0.97346650  0.91184128  0.49735617    -0.11400
C707        C  0.96674425  0.88458863  0.46751133     0.01400
C708        C  0.96810787  0.88275104  0.45758486    -0.31400
C709        C  0.96200514  0.87625913  0.51432556     0.02800
C710        C  0.95985995  0.87856772  0.52421946    -0.33100
H711        H  0.94729331  0.81987366  0.49988130     0.13800
H712        H  0.94903358  0.82396189  0.47956282     0.13600
H713        H  0.98194266  0.94064220  0.48195993     0.13500
H714        H  0.98020666  0.93655225  0.50227895     0.12500
C715        C  0.86307110  0.76939914  0.42991789     0.18900
C716        C  0.85340281  0.74122989  0.42252647    -0.10300
C717        C  0.82744464  0.73349105  0.42226689    -0.11100
C718        C  0.81101953  0.75397849  0.42936497     0.20400
C719        C  0.82069998  0.78189893  0.43682934    -0.13100
C720        C  0.84667781  0.78964004  0.43708996    -0.11400
C721        C  0.78436505  0.74556501  0.42904329     0.01400
C722        C  0.76273938  0.73459224  0.42837766    -0.31400
C723        C  0.88943919  0.77978185  0.42959878     0.02800
C724        C  0.91054749  0.79297845  0.42892030    -0.33100
H725        H  0.86585581  0.72568950  0.41687352     0.13800
H726        H  0.82015759  0.71171592  0.41649006     0.13600
H727        H  0.80819245  0.79779253  0.44238121     0.13500
H728        H  0.85393536  0.81177157  0.44276685     0.12500
C729        C  0.56256567  0.50022931  0.42283112     0.18900
C730        C  0.56254526  0.52875876  0.43128177    -0.10300
C731        C  0.57981548  0.56017291  0.43104607    -0.11100
C732        C  0.59714117  0.56331539  0.42233499     0.20400
C733        C  0.59713728  0.53482230  0.41387501    -0.13100
C734        C  0.57986441  0.50340334  0.41411064    -0.11400
C735        C  0.61575540  0.59450685  0.42234512     0.01400
C736        C  0.63295937  0.61797460  0.42255289    -0.31400
C737        C  0.54427420  0.46856818  0.42295782     0.02800
C738        C  0.52753876  0.44427314  0.42313254    -0.33100
H739        H  0.54917580  0.52672836  0.43804026     0.13800
H740        H  0.57975976  0.58183022  0.43767569     0.13600
H741        H  0.61057438  0.53676839  0.40714045     0.13500
H742        H  0.57998467  0.48165502  0.40750474     0.12500
C743        C  0.55790998  0.50445003  0.55110633     0.18900
C744        C  0.57112268  0.50797447  0.56108819    -0.10300
C745        C  0.59692413  0.51673467  0.56103226    -0.11100
C746        C  0.60966000  0.52185337  0.55099257     0.20400
C747        C  0.59644345  0.51853795  0.54099595    -0.13100
C748        C  0.57059762  0.50972880  0.54105167    -0.11400
C749        C  0.63599601  0.53227497  0.55103652     0.01400
C750        C  0.65737547  0.54438452  0.55152841    -0.31400
C751        C  0.53177462  0.49289313  0.55124672     0.02800
C752        C  0.51081096  0.47920965  0.55188037    -0.33100
H753        H  0.56152755  0.50361038  0.56890244     0.13800
H754        H  0.60693226  0.51954728  0.56880734     0.13600
H755        H  0.60609165  0.52276211  0.53318975     0.13500
H756        H  0.56058443  0.50672471  0.53328470     0.12500
C757        C  0.82142842  0.71900052  0.55632342     0.18900
C758        C  0.83270815  0.73197600  0.54650209    -0.10300
C759        C  0.84925314  0.76430704  0.54665623    -0.11100
C760        C  0.85449006  0.78389042  0.55662331     0.20400
C761        C  0.84320934  0.77091696  0.56644216    -0.13100
C762        C  0.82666644  0.73858745  0.56628806    -0.11400
C763        C  0.87239648  0.81595635  0.55684862     0.01400
C764        C  0.88905356  0.84030353  0.55696495    -0.31400
C765        C  0.80336734  0.68714841  0.55608746     0.02800
C766        C  0.78640144  0.66334364  0.55584142    -0.33100
H767        H  0.82861025  0.71726470  0.53873699     0.13800
H768        H  0.85801916  0.77393277  0.53902775     0.13600
H769        H  0.84726901  0.78567598  0.57420381     0.13500
H770        H  0.81786485  0.72901094  0.57391322     0.12500
C771        C  0.70695576  0.63895578  0.47795908     0.18900
C772        C  0.72925709  0.65146114  0.48314804    -0.10300
C773        C  0.73092716  0.65166968  0.49467777    -0.11100
C774        C  0.71026387  0.63952438  0.50106534     0.20400
C775        C  0.68793103  0.62711075  0.49587975    -0.13100
C776        C  0.68625914  0.62690739  0.48434519    -0.11400
C777        C  0.71239386  0.63795258  0.51290212     0.01400
C778        C  0.71465264  0.63344130  0.52272504    -0.31400
C779        C  0.70499163  0.64024468  0.46611359     0.02800
C780        C  0.70319450  0.64481333  0.45627458    -0.33100
H781        H  0.74530202  0.66112775  0.47828548     0.13800
H782        H  0.74833464  0.66108195  0.49860370     0.13600
H783        H  0.67189693  0.61741942  0.50074505     0.13500
H784        H  0.66886051  0.61747520  0.48041587     0.12500
C785        C  0.98765276  0.28925872  0.87479812     0.18900
C786        C  0.00744727  0.26258847  0.87271196    -0.10300
C787        C  0.00748179  0.23979504  0.86303326    -0.11100
C788        C  0.98767119  0.24348316  0.85541973     0.20400
C789        C  0.96787324  0.27012986  0.85751440    -0.13100
C790        C  0.96784044  0.29291577  0.86718811    -0.11400
C791        C  0.98798708  0.22108817  0.84527560     0.01400
C792        C  0.98794347  0.20511624  0.83634982    -0.31400
C793        C  0.98724591  0.31172965  0.88492640     0.02800
C794        C  0.98666127  0.32803558  0.89380011    -0.33100
H795        H  0.02278997  0.25935230  0.87857419     0.13800
H796        H  0.02294565  0.21943919  0.86147488     0.13600
H797        H  0.95252005  0.27336540  0.85165692     0.13500
H798        H  0.95236823  0.31325943  0.86874527     0.12500
C799        C  0.94565868  0.97726591  0.60649451     0.18900
C800        C  0.96873677  0.98866018  0.61121427    -0.10300
C801        C  0.96907758  0.01211455  0.62076368    -0.11100
C802        C  0.94634363  0.02444016  0.62563127     0.20400
C803        C  0.92324496  0.01294081  0.62093925    -0.13100
C804        C  0.92290374  0.98947255  0.61137850    -0.11400
C805        C  0.94681108  0.04755402  0.63566031     0.01400
C806        C  0.94777217  0.06430906  0.64447061    -0.31400
C807        C  0.94542865  0.95484777  0.59634228     0.02800
C808        C  0.94583162  0.93910179  0.58738073    -0.33100
H809        H  0.98644842  0.97963817  0.60747268     0.13800
H810        H  0.98704762  0.02059695  0.62435514     0.13600
H811        H  0.90554505  0.02207120  0.62466958     0.13500
H812        H  0.90494485  0.98107651  0.60776237     0.12500
C813        C  0.97365898  0.13727545  0.75162362     0.18900
C814        C  0.97213266  0.17326545  0.74587142    -0.10300
C815        C  0.97010955  0.17332870  0.73434515    -0.11100
C816        C  0.96962699  0.13737955  0.72852830     0.20400
C817        C  0.97116955  0.10140352  0.73428291    -0.13100
C818        C  0.97318955  0.10134047  0.74580530    -0.11400
C819        C  0.96716539  0.13701705  0.71668558     0.01400
C820        C  0.96455035  0.13319993  0.70684582    -0.31400
C821        C  0.97586788  0.13751015  0.76347429     0.02800
C822        C  0.97798071  0.14080333  0.77335001    -0.33100
H823        H  0.97249999  0.20123811  0.75029754     0.13800
H824        H  0.96887093  0.20130060  0.72998687     0.13600
H825        H  0.97075293  0.07342296  0.72986154     0.13500
H826        H  0.97437568  0.07336204  0.75016341     0.12500
C827        C  0.70679288  0.24145814  0.87469856     0.18900
C828        C  0.68441488  0.25979019  0.87116735    -0.10300
C829        C  0.68444787  0.28364421  0.86171569    -0.11100
C830        C  0.70688410  0.28940106  0.85577628     0.20400
C831        C  0.72925262  0.27105915  0.85930944    -0.13100
C832        C  0.72921881  0.24721364  0.86875590    -0.11400
C833        C  0.70686324  0.31285647  0.84583960     0.01400
C834        C  0.70742818  0.32992604  0.83709283    -0.31400
C835        C  0.70700079  0.21841040  0.88470664     0.02800
C836        C  0.70734089  0.20214867  0.89357302    -0.33100
H837        H  0.66700236  0.25580563  0.87574644     0.13800
H838        H  0.66701499  0.29750328  0.85903340     0.13600
H839        H  0.74668725  0.27512989  0.85475174     0.13500
H840        H  0.74667253  0.23345374  0.87145349     0.12500
C841        C  0.87541973  0.26091386  0.80116320     0.18900
C842        C  0.85798455  0.24193590  0.79421384    -0.10300
C843        C  0.83237307  0.25211041  0.79469659    -0.11100
C844        C  0.82416052  0.28117120  0.80216386     0.20400
C845        C  0.84163097  0.30033022  0.80904696    -0.13100
C846        C  0.86721091  0.29017303  0.80856346    -0.11400
C847        C  0.79798197  0.29230442  0.80266889     0.01400
C848        C  0.77697634  0.30576222  0.80342729    -0.31400
C849        C  0.90137026  0.24839855  0.80122712     0.02800
C850        C  0.92219829  0.23415877  0.80178264    -0.33100
H851        H  0.86414459  0.21899850  0.78853107     0.13800
H852        H  0.81901736  0.23727287  0.78930632     0.13600
H853        H  0.83545280  0.32298922  0.81481348     0.13500
H854        H  0.88050760  0.30475208  0.81403716     0.12500
C855        C  0.73137489  0.53105471  0.60481784     0.18900
C856        C  0.75492390  0.52351216  0.60969339    -0.10300
C857        C  0.75630271  0.50316020  0.61974363    -0.11100
C858        C  0.73414486  0.49013244  0.62494475     0.20400
C859        C  0.71060242  0.49774446  0.62007558    -0.13100
C860        C  0.70922411  0.51808998  0.61002994    -0.11400
C861        C  0.73547565  0.47027489  0.63545837     0.01400
C862        C  0.73632987  0.45615085  0.64460140    -0.31400
C863        C  0.72994363  0.55097742  0.59431899     0.02800
C864        C  0.72857150  0.56564357  0.58525633    -0.33100
H865        H  0.77218240  0.53326022  0.60571869     0.13800
H866        H  0.77460081  0.49767987  0.62346615     0.13600
H867        H  0.69333651  0.48805294  0.62405505     0.13500
H868        H  0.69091996  0.52361707  0.60631767     0.12500
C869        C  0.86196519  0.23213656  0.67300486     0.18900
C870        C  0.86821662  0.26643228  0.66706472    -0.10300
C871        C  0.85200929  0.29927795  0.66718472    -0.11100
C872        C  0.82949641  0.29800147  0.67326789     0.20400
C873        C  0.82323371  0.26367739  0.67918991    -0.13100
C874        C  0.83943240  0.23084846  0.67906961    -0.11400
C875        C  0.81248400  0.33140517  0.67332258     0.01400
C876        C  0.79654532  0.35700838  0.67359539    -0.31400
C877        C  0.87914367  0.19895585  0.67316862     0.02800
C878        C  0.89501796  0.17326592  0.67345973    -0.33100
H879        H  0.88566425  0.26783752  0.66239057     0.13800
H880        H  0.85702018  0.32558574  0.66255260     0.13600
H881        H  0.80583465  0.26231181  0.68390029     0.13500
H882        H  0.83445965  0.20460231  0.68373745     0.12500
C883        C  0.72945578  0.40475381  0.75344678     0.18900
C884        C  0.72827273  0.44002154  0.74737934    -0.10300
C885        C  0.72940774  0.43881421  0.73583428    -0.11100
C886        C  0.73169033  0.40235330  0.73031880     0.20400
C887        C  0.73308138  0.36712703  0.73639219    -0.13100
C888        C  0.73195651  0.36833465  0.74793144    -0.11400
C889        C  0.73250673  0.40132954  0.71843976     0.01400
C890        C  0.73329408  0.40330298  0.70850458    -0.31400
C891        C  0.72723447  0.40540266  0.76529336     0.02800
C892        C  0.72448457  0.40190791  0.77512753    -0.33100
H893        H  0.72625829  0.46831409  0.75155426     0.13800
H894        H  0.72834979  0.46624564  0.73120745     0.13600
H895        H  0.73487754  0.33879817  0.73221664     0.13500
H896        H  0.73280602  0.34086608  0.75255020     0.12500
C897        C  0.45224321  0.48103558  0.60677019     0.18900
C898        C  0.43151364  0.48236157  0.61396822    -0.10300
C899        C  0.43282216  0.50472765  0.62370530    -0.11100
C900        C  0.45482897  0.52598273  0.62627139     0.20400
C901        C  0.47561030  0.52447489  0.61910505    -0.13100
C902        C  0.47430261  0.50210717  0.60936862    -0.11400
C903        C  0.45624472  0.54841963  0.63639280     0.01400
C904        C  0.45714695  0.56490684  0.64523826    -0.31400
C905        C  0.45048478  0.45986766  0.59644984     0.02800
C906        C  0.44913687  0.44537357  0.58734940    -0.33100
H907        H  0.41430638  0.46641056  0.61201107     0.13800
H908        H  0.41668334  0.50551422  0.62921602     0.13600
H909        H  0.49276433  0.54061533  0.62103055     0.13500
H910        H  0.49038902  0.50150942  0.60382679     0.12500
C911        C  0.57481599  0.53110388  0.68060888     0.18900
C912        C  0.58764745  0.52481492  0.67063524    -0.10300
C913        C  0.61362140  0.51730880  0.67066602    -0.11100
C914        C  0.62693285  0.51621491  0.68066582     0.20400
C915        C  0.61414182  0.52263245  0.69065565    -0.13100
C916        C  0.58811554  0.53019499  0.69062393    -0.11400
C917        C  0.65327587  0.50565921  0.68062964     0.01400
C918        C  0.67431429  0.49212847  0.68001555    -0.31400
C919        C  0.54826125  0.54022806  0.68044899     0.02800
C920        C  0.52662715  0.55114641  0.67978120    -0.33100
H921        H  0.57757775  0.52573622  0.66284221     0.13800
H922        H  0.62327994  0.51197995  0.66290554     0.13600
H923        H  0.62421422  0.52144135  0.69844330     0.13500
H924        H  0.57839131  0.53531201  0.69837790     0.12500
C925        C  0.48784254  0.78585938  0.87584349     0.18900
C926        C  0.46566718  0.76643197  0.87254501    -0.10300
C927        C  0.46528263  0.74421968  0.86277081    -0.11100
C928        C  0.48709976  0.74120357  0.85626061     0.20400
C929        C  0.50928926  0.76064574  0.85955195    -0.13100
C930        C  0.50967541  0.78286995  0.86933470    -0.11400
C931        C  0.48643542  0.71952043  0.84599780     0.01400
C932        C  0.48574007  0.70397403  0.83701782    -0.31400
C933        C  0.48830231  0.80764128  0.88609097     0.02800
C934        C  0.48808783  0.82335625  0.89505233    -0.33100
H935        H  0.44870986  0.76837977  0.87754113     0.13800
H936        H  0.44798063  0.72953602  0.86027403     0.13600
H937        H  0.52622874  0.75873006  0.85454408     0.13500
H938        H  0.52696076  0.79760302  0.87183005     0.12500
C939        C  0.61800942  0.49314089  0.80816606     0.18900
C940        C  0.62115964  0.52539043  0.80100314    -0.10300
C941        C  0.60372120  0.55660303  0.80107161    -0.11100
C942        C  0.58311131  0.55573267  0.80833076     0.20400
C943        C  0.58000148  0.52352936  0.81551135    -0.13100
C944        C  0.59743422  0.49231969  0.81544166    -0.11400
C945        C  0.56443644  0.58676080  0.80808690     0.01400
C946        C  0.54703954  0.60982990  0.80777679    -0.31400
C947        C  0.63624304  0.46145804  0.80818031     0.02800
C948        C  0.65284915  0.43696729  0.80807567    -0.33100
H949        H  0.63706319  0.52636726  0.79536698     0.13800
H950        H  0.60620442  0.58120717  0.79543089     0.13600
H951        H  0.56401815  0.52243385  0.82110240     0.13500
H952        H  0.59486486  0.46760163  0.82103619     0.12500
C953        C  0.46929352  0.64208356  0.72921717     0.18900
C954        C  0.44764237  0.64702458  0.73574616    -0.10300
C955        C  0.44939878  0.64465516  0.74725433    -0.11100
C956        C  0.47278732  0.63714461  0.75226940     0.20400
C957        C  0.49444307  0.63224441  0.74574086    -0.13100
C958        C  0.49268673  0.63461430  0.73423306    -0.11400
C959        C  0.47476023  0.63643567  0.76411542     0.01400
C960        C  0.47660669  0.63945304  0.77400173    -0.31400
C961        C  0.46727667  0.64231460  0.71737161     0.02800
C962        C  0.46543094  0.63841644  0.70750940    -0.33100
H963        H  0.42942489  0.65246203  0.73194327     0.13800
H964        H  0.43257398  0.64878359  0.75223532     0.13600
H965        H  0.51265128  0.62671936  0.74954252     0.13500
H966        H  0.50950202  0.63039850  0.72925132     0.12500
C967        C  0.22736263  0.02167622  0.60471990     0.18900
C968        C  0.23528097  0.98205590  0.60387110    -0.10300
C969        C  0.23462677  0.95728174  0.61313600    -0.11100
C970        C  0.22599595  0.97200005  0.62329260     0.20400
C971        C  0.21806749  0.01160772  0.62413388    -0.13100
C972        C  0.21872450  0.03636833  0.61487474    -0.11400
C973        C  0.22576939  0.94710659  0.63296007     0.01400
C974        C  0.22569481  0.92985700  0.64168616    -0.31400
C975        C  0.22754719  0.04673834  0.59508695     0.02800
C976        C  0.22727148  0.06499937  0.58652347    -0.33100
H977        H  0.24190567  0.97031808  0.59604630     0.13800
H978        H  0.24088071  0.92678070  0.61238702     0.13600
H979        H  0.21143309  0.02336044  0.63195587     0.13500
H980        H  0.21246397  0.06686611  0.61562794     0.12500
C981        C  0.11301283  0.98162022  0.67768715     0.18900
C982        C  0.09542958  0.96513736  0.67033316    -0.10300
C983        C  0.07010773  0.97694156  0.67072636    -0.11100
C984        C  0.06224794  0.00518272  0.67850453     0.20400
C985        C  0.07980308  0.02153106  0.68590117    -0.13100
C986        C  0.10514554  0.00971660  0.68550785    -0.11400
C987        C  0.03656789  0.01920051  0.67847160     0.01400
C988        C  0.01600463  0.03450872  0.67806068    -0.31400
C989        C  0.13896820  0.96902626  0.67724959     0.02800
C990        C  0.15994625  0.95534475  0.67651977    -0.33100
H991        H  0.10132149  0.94329542  0.66427256     0.13800
H992        H  0.05674276  0.96438181  0.66490782     0.13600
H993        H  0.07394923  0.04366459  0.69188516     0.13500
H994        H  0.11857501  0.02255510  0.69124937     0.12500
C995        C  0.35830252  0.71488955  0.67218753     0.18900
C996        C  0.36192030  0.75034387  0.67805175    -0.10300
C997        C  0.34404167  0.78080845  0.67736785    -0.11100
C998        C  0.32248008  0.77601728  0.67078931     0.20400
C999        C  0.31882805  0.74054542  0.66492763    -0.13100
C1000       C  0.33672979  0.71005081  0.66560979    -0.11400
C1001       C  0.30361306  0.80676920  0.67039388     0.01400
C1002       C  0.28654032  0.83047873  0.67043877    -0.31400
C1003       C  0.37722461  0.68424749  0.67271900     0.02800
C1004       C  0.39484758  0.66165074  0.67329677    -0.33100
H1005       H  0.37858950  0.75445535  0.68313020     0.13800
H1006       H  0.34697701  0.80798178  0.68199094     0.13600
H1007       H  0.30212480  0.73643190  0.65987227     0.13500
H1008       H  0.33378819  0.68283547  0.66100826     0.12500
C1009       C  0.20658059  0.74719992  0.87475478     0.18900
C1010       C  0.18374806  0.75822732  0.86974914    -0.10300
C1011       C  0.18391756  0.77963966  0.85985690    -0.11100
C1012       C  0.20691967  0.79026477  0.85493945     0.20400
C1013       C  0.22975506  0.77938723  0.85997038    -0.13100
C1014       C  0.22958548  0.75797498  0.86986416    -0.11400
C1015       C  0.20706743  0.81060819  0.84448215     0.01400
C1016       C  0.20701451  0.82477874  0.83533715    -0.31400
C1017       C  0.20640884  0.72583471  0.88505216     0.02800
C1018       C  0.20636467  0.71009176  0.89399453    -0.33100
H1019       H  0.16584776  0.75025022  0.87348295     0.13800
H1020       H  0.16614481  0.78766293  0.85600847     0.13600
H1021       H  0.24765447  0.78721239  0.85621074     0.13500
H1022       H  0.24735707  0.74980001  0.87368875     0.12500
C1023       C  0.36846262  0.74515080  0.80089902     0.18900
C1024       C  0.36042993  0.77695378  0.79435636    -0.10300
C1025       C  0.33470883  0.78626204  0.79370536    -0.11100
C1026       C  0.31695730  0.76372067  0.79956487     0.20400
C1027       C  0.32497662  0.73168740  0.80601894    -0.13100
C1028       C  0.35068404  0.72237828  0.80666772    -0.11400
C1029       C  0.29082678  0.77536504  0.79956897     0.01400
C1030       C  0.26990307  0.78930969  0.80009775    -0.31400
C1031       C  0.39485624  0.73543746  0.80168210     0.02800
C1032       C  0.41632688  0.72400152  0.80258079    -0.33100
H1033       H  0.37402082  0.79467091  0.78984462     0.13800
H1034       H  0.32869945  0.81134210  0.78877235     0.13600
H1035       H  0.31143102  0.71432010  0.81066134     0.13500
H1036       H  0.35672127  0.69764706  0.81172941     0.12500
C1037       C  0.11344822  0.98053223  0.80758232     0.18900
C1038       C  0.08927340  0.97572949  0.81209674    -0.10300
C1039       C  0.07245859  0.00776701  0.81236728    -0.11100
C1040       C  0.07976845  0.04472215  0.80814548     0.20400
C1041       C  0.10400088  0.04958100  0.80369781    -0.13100
C1042       C  0.12081137  0.01755737  0.80342936    -0.11400
C1043       C  0.06199391  0.07703946  0.80801617     0.01400
C1044       C  0.04558221  0.10181928  0.80766503    -0.31400
C1045       C  0.13084958  0.94774016  0.80718476     0.02800
C1046       C  0.14703610  0.92264172  0.80661384    -0.33100
H1047       H  0.08340216  0.94726697  0.81534396     0.13800
H1048       H  0.05370527  0.00365626  0.81577954     0.13600
H1049       H  0.10980594  0.07795203  0.80036619     0.13500
H1050       H  0.13949268  0.02159401  0.79993464     0.12500
C1051       C  0.21389595  0.87549536  0.74961471     0.18900
C1052       C  0.19162874  0.87276108  0.74338399    -0.10300
C1053       C  0.19287908  0.86847943  0.73189556    -0.11100
C1054       C  0.21640337  0.86673351  0.72659242     0.20400
C1055       C  0.23867061  0.86939020  0.73282638    -0.13100
C1056       C  0.23742031  0.87367319  0.74431412    -0.11400
C1057       C  0.21770569  0.86453810  0.71472565     0.01400
C1058       C  0.21910055  0.86663622  0.70480106    -0.31400
C1059       C  0.21260405  0.87832540  0.76147136     0.02800
C1060       C  0.21134395  0.87728669  0.77141300    -0.33100
H1061       H  0.17333786  0.87385199  0.74740498     0.13800
H1062       H  0.17554233  0.86678539  0.72714982     0.13600
H1063       H  0.25696180  0.86840379  0.72880342     0.13500
H1064       H  0.25475719  0.87547288  0.74905701     0.12500
C1065       C  0.18938159  0.24511936  0.37528392     0.18900
C1066       C  0.20870946  0.27195153  0.37266434    -0.10300
C1067       C  0.20790622  0.29315809  0.36273616    -0.11100
C1068       C  0.18772589  0.28775352  0.35538335     0.20400
C1069       C  0.16843597  0.26084697  0.35798965    -0.13100
C1070       C  0.16923893  0.23964133  0.36791722    -0.11400
C1071       C  0.18715457  0.30877822  0.34501935     0.01400
C1072       C  0.18681608  0.32391476  0.33598865    -0.31400
C1073       C  0.18985154  0.22431226  0.38568450     0.02800
C1074       C  0.19031719  0.20937056  0.39474067    -0.33100
H1075       H  0.22433278  0.27657671  0.37831125     0.13800
H1076       H  0.22300613  0.31368629  0.36079087     0.13600
H1077       H  0.15280898  0.25623139  0.35234442     0.13500
H1078       H  0.15413483  0.21912334  0.36986329     0.12500
C1079       C  0.22171871  0.49679034  0.12515115     0.18900
C1080       C  0.23359539  0.53397201  0.12517358    -0.10300
C1081       C  0.23436270  0.55669489  0.11551573    -0.11100
C1082       C  0.22320097  0.54233863  0.10580445     0.20400
C1083       C  0.21135555  0.50514828  0.10578678    -0.13100
C1084       C  0.21059151  0.48244225  0.11543652    -0.11400
C1085       C  0.22421352  0.56508323  0.09576124     0.01400
C1086       C  0.22473958  0.58073968  0.08681711    -0.31400
C1087       C  0.22043602  0.47397502  0.13517544     0.02800
C1088       C  0.21911454  0.45729163  0.14395761    -0.33100
H1089       H  0.24218323  0.54541525  0.13265755     0.13800
H1090       H  0.24363893  0.58533398  0.11561798     0.13600
H1091       H  0.20273288  0.49370581  0.09830972     0.13500
H1092       H  0.20128433  0.45382616  0.11533117     0.12500
C1093       C  0.19919140  0.38214967  0.22774564     0.18900
C1094       C  0.22092891  0.37537575  0.23408314    -0.10300
C1095       C  0.21972001  0.37741366  0.24561215    -0.11100
C1096       C  0.19679164  0.38639603  0.25085113     0.20400
C1097       C  0.17503689  0.39311906  0.24451505    -0.13100
C1098       C  0.17624763  0.39108703  0.23298065    -0.11400
C1099       C  0.19537796  0.38692935  0.26272216     0.01400
C1100       C  0.19397641  0.38409212  0.27262829    -0.31400
C1101       C  0.20080455  0.38224827  0.21588366     0.02800
C1102       C  0.20298164  0.38611615  0.20603608    -0.33100
H1103       H  0.23881336  0.36878756  0.23011354     0.13800
H1104       H  0.23661572  0.37190743  0.25043537     0.13600
H1105       H  0.15717406  0.39983034  0.24848627     0.13500
H1106       H  0.15937707  0.39672073  0.22815224     0.12500
C1107       C  0.46936780  0.30975779  0.37381960     0.18900
C1108       C  0.49126801  0.28936681  0.37058454    -0.10300
C1109       C  0.49116168  0.26595473  0.36102090    -0.11100
C1110       C  0.46912210  0.26267902  0.35466257     0.20400
C1111       C  0.44725245  0.28323651  0.35786364    -0.13100
C1112       C  0.44735770  0.30665028  0.36743081    -0.11400
C1113       C  0.46915754  0.23935966  0.34466763     0.01400
C1114       C  0.46916705  0.22240238  0.33587679    -0.31400
C1115       C  0.46914986  0.33200312  0.38400080     0.02800
C1116       C  0.46892255  0.34733156  0.39301874    -0.33100
H1117       H  0.50834541  0.29131720  0.37549939     0.13800
H1118       H  0.50822551  0.25041148  0.35859348     0.13600
H1119       H  0.43014350  0.28113441  0.35297452     0.13500
H1120       H  0.43026132  0.32204458  0.36988827     0.12500
C1121       C  0.30068051  0.27409496  0.30085991     0.18900
C1122       C  0.31388443  0.27148511  0.31086459    -0.10300
C1123       C  0.33991565  0.26443850  0.31084865    -0.11100
C1124       C  0.35289035  0.26014521  0.30082705     0.20400
C1125       C  0.33969318  0.26261916  0.29081073    -0.13100
C1126       C  0.31362362  0.26970662  0.29082650    -0.11400
C1127       C  0.37946247  0.25117369  0.30090713     0.01400
C1128       C  0.40104324  0.23994049  0.30146919    -0.31400
C1129       C  0.27422643  0.28387248  0.30094162     0.02800
C1130       C  0.25291454  0.29633681  0.30144949    -0.33100
H1131       H  0.30409379  0.27520137  0.31866483     0.13800
H1132       H  0.34990919  0.26224740  0.31864012     0.13600
H1133       H  0.34952352  0.25900708  0.28301791     0.13500
H1134       H  0.30361952  0.27204392  0.28304246     0.12500
C1135       C  0.44175818  0.04318464  0.12496482     0.18900
C1136       C  0.46393297  0.04168437  0.11864414    -0.10300
C1137       C  0.46490288  0.01835081  0.10907774    -0.11100
C1138       C  0.44373390  0.99627635  0.10580162     0.20400
C1139       C  0.42151751  0.99789687  0.11209509    -0.13100
C1140       C  0.42054795  0.02123802  0.12166653    -0.11400
C1141       C  0.44459805  0.97317837  0.09577891     0.01400
C1142       C  0.44553068  0.95656987  0.08694893    -0.31400
C1143       C  0.44117131  0.06566910  0.13509871     0.02800
C1144       C  0.44114978  0.08179874  0.14400661    -0.33100
H1145       H  0.48049438  0.05832823  0.12114668     0.13800
H1146       H  0.48213001  0.01753573  0.10423738     0.13600
H1147       H  0.40498268  0.98116787  0.10960449     0.13500
H1148       H  0.40334729  0.02197957  0.12652482     0.12500
C1149       C  0.30786369  0.29320770  0.17244975     0.18900
C1150       C  0.32262428  0.28665944  0.18188214    -0.10300
C1151       C  0.34020154  0.25566090  0.18204633    -0.11100
C1152       C  0.34304773  0.23097144  0.17279514     0.20400
C1153       C  0.32827261  0.23747907  0.16336136    -0.13100
C1154       C  0.31067590  0.26849554  0.16319820    -0.11400
C1155       C  0.36199845  0.20031144  0.17284664     0.01400
C1156       C  0.37953413  0.17746712  0.17307477    -0.31400
C1157       C  0.28928345  0.32442309  0.17240407     0.02800
C1158       C  0.27265595  0.34889498  0.17258690    -0.33100
H1159       H  0.32052505  0.30545845  0.18909915     0.13800
H1160       H  0.35166463  0.25108110  0.18935498     0.13600
H1161       H  0.33045008  0.21876179  0.15613324     0.13500
H1162       H  0.29926843  0.27318287  0.15587936     0.12500
C1163       C  0.45375025  0.15356990  0.22846563     0.18900
C1164       C  0.43390941  0.13760841  0.23471126    -0.10300
C1165       C  0.43579240  0.13575187  0.24622529    -0.11100
C1166       C  0.45757462  0.14971035  0.25153419     0.20400
C1167       C  0.47739400  0.16575085  0.24529028    -0.13100
C1168       C  0.47551141  0.16760599  0.23377567    -0.11400
C1169       C  0.45925867  0.14919601  0.26339637     0.01400
C1170       C  0.46102933  0.15248702  0.27328265    -0.31400
C1171       C  0.45215372  0.15374786  0.21660102     0.02800
C1172       C  0.45044933  0.15014022  0.20672134    -0.33100
H1173       H  0.41706139  0.12643814  0.23067664     0.13800
H1174       H  0.42028878  0.12355224  0.25097661     0.13600
H1175       H  0.49425165  0.17688672  0.24932448     0.13500
H1176       H  0.49102483  0.17976979  0.22902325     0.12500
C1177       C  0.97290001  0.78676473  0.37489942     0.18900
C1178       C  0.95891272  0.75148839  0.37434489    -0.10300
C1179       C  0.95831501  0.72935240  0.36455037    -0.11100
C1180       C  0.97175613  0.74234507  0.35526787     0.20400
C1181       C  0.98574347  0.77761338  0.35582448    -0.13100
C1182       C  0.98634081  0.79974675  0.36561751    -0.11400
C1183       C  0.97073651  0.72028815  0.34506626     0.01400
C1184       C  0.96990271  0.70472853  0.33608688    -0.31400
C1185       C  0.97385437  0.80893599  0.38508394     0.02800
C1186       C  0.97449483  0.82466568  0.39404406    -0.33100
H1187       H  0.94851309  0.74108421  0.38148595     0.13800
H1188       H  0.94735451  0.70224174  0.36420813     0.13600
H1189       H  0.99612644  0.78803755  0.34868127     0.13500
H1190       H  0.99728467  0.82687384  0.36595576     0.12500
C1191       C  0.05973461  0.54483464  0.30657232     0.18900
C1192       C  0.06823471  0.52848535  0.29658245    -0.10300
C1193       C  0.08445653  0.49568987  0.29664024    -0.11100
C1194       C  0.09216521  0.47898327  0.30668617     0.20400
C1195       C  0.08365534  0.49532031  0.31667485    -0.13100
C1196       C  0.06743006  0.52811842  0.31661704    -0.11400
C1197       C  0.10985055  0.44649972  0.30673928     0.01400
C1198       C  0.12641721  0.42191524  0.30662006    -0.31400
C1199       C  0.04223713  0.57756425  0.30650227     0.02800
C1200       C  0.02602776  0.60272298  0.30635628    -0.33100
H1201       H  0.06227244  0.54100218  0.28876556     0.13800
H1202       H  0.09108377  0.48350408  0.28886828     0.13600
H1203       H  0.08965745  0.48284934  0.32449101     0.13500
H1204       H  0.06083901  0.54035483  0.32438816     0.12500
C1205       C  0.94109619  0.55067282  0.12397973     0.18900
C1206       C  0.96336158  0.53192573  0.12047151    -0.10300
C1207       C  0.96343786  0.50917727  0.11079250    -0.11100
C1208       C  0.94122618  0.50494540  0.10459791     0.20400
C1209       C  0.91893826  0.52361570  0.10811547    -0.13100
C1210       C  0.91886109  0.54637128  0.11779977    -0.11400
C1211       C  0.94160725  0.48301225  0.09438277     0.01400
C1212       C  0.94233497  0.46735278  0.08542381    -0.31400
C1213       C  0.94089858  0.57297210  0.13413752     0.02800
C1214       C  0.94092664  0.58890329  0.14306703    -0.33100
H1215       H  0.98062272  0.53483734  0.12522491     0.13800
H1216       H  0.98081215  0.49508107  0.10811253     0.13600
H1217       H  0.90169259  0.52074558  0.10334986     0.13500
H1218       H  0.90150074  0.56052040  0.12047376     0.12500
C1219       C  0.10394305  0.51169748  0.17943188     0.18900
C1220       C  0.09670891  0.54849767  0.17513280    -0.10300
C1221       C  0.07120223  0.55931232  0.17502140    -0.11100
C1222       C  0.05284736  0.53334420  0.17917958     0.20400
C1223       C  0.06010174  0.49673960  0.18360383    -0.13100
C1224       C  0.08562588  0.48592751  0.18372075    -0.11400
C1225       C  0.02665969  0.54457368  0.17877419     0.01400
C1226       C  0.00570949  0.55825614  0.17799361    -0.31400
C1227       C  0.12987209  0.49915191  0.17887740     0.02800
C1228       C  0.15059039  0.48465446  0.17803933    -0.33100
H1229       H  0.11069758  0.56851210  0.17173530     0.13800
H1230       H  0.06575580  0.58773281  0.17159343     0.13600
H1231       H  0.04606320  0.47648875  0.18684841     0.13500
H1232       H  0.09104466  0.45727212  0.18700119     0.12500
C1233       C  0.95244908  0.65140295  0.22797547     0.18900
C1234       C  0.93481052  0.62833630  0.23374010    -0.10300
C1235       C  0.93627922  0.62515649  0.24524061    -0.11100
C1236       C  0.95544869  0.64494757  0.25101236     0.20400
C1237       C  0.97310684  0.66797544  0.24524569    -0.13100
C1238       C  0.97163778  0.67115562  0.23374499    -0.11400
C1239       C  0.95660316  0.64297141  0.26286947     0.01400
C1240       C  0.95817781  0.64507159  0.27278399    -0.31400
C1241       C  0.95125116  0.65346446  0.21612208     0.02800
C1242       C  0.94971456  0.65135744  0.20620794    -0.33100
H1243       H  0.91998089  0.61275186  0.22934084     0.13800
H1244       H  0.92246536  0.60743897  0.24962122     0.13600
H1245       H  0.98793711  0.68355945  0.24964459     0.13500
H1246       H  0.98545134  0.68887253  0.22936378     0.12500
C1247       C  0.69328405  0.75840388  0.37537441     0.18900
C1248       C  0.71607477  0.76740022  0.37003813    -0.10300
C1249       C  0.71604324  0.79112455  0.36056655    -0.11100
C1250       C  0.69323238  0.80610989  0.35640681     0.20400
C1251       C  0.67044033  0.79714398  0.36174745    -0.13100
C1252       C  0.67047204  0.77341541  0.37122167    -0.11400
C1253       C  0.69314468  0.82910869  0.34638938     0.01400
C1254       C  0.69331017  0.84549633  0.33753975    -0.31400
C1255       C  0.69341160  0.73511274  0.38533940     0.02800
C1256       C  0.69367705  0.71814369  0.39410328    -0.33100
H1257       H  0.73384159  0.75616497  0.37321005     0.13800
H1258       H  0.73376345  0.79763011  0.35646367     0.13600
H1259       H  0.65267277  0.80833285  0.35856452     0.13500
H1260       H  0.65275100  0.76685644  0.37531654     0.12500
C1261       C  0.85652963  0.76505000  0.30178927     0.18900
C1262       C  0.84347543  0.76746058  0.31183870    -0.10300
C1263       C  0.81801124  0.77847022  0.31198820    -0.11100
C1264       C  0.80545264  0.78696880  0.30208435     0.20400
C1265       C  0.81848492  0.78456228  0.29202104    -0.13100
C1266       C  0.84398614  0.77350653  0.29187057    -0.11400
C1267       C  0.77965650  0.80035298  0.30236247     0.01400
C1268       C  0.75898685  0.81516790  0.30302209    -0.31400
C1269       C  0.88237167  0.75185347  0.30168620     0.02800
C1270       C  0.90311066  0.73715731  0.30206084    -0.33100
H1271       H  0.85295343  0.76067644  0.31954516     0.13800
H1272       H  0.80816206  0.78057247  0.31981965     0.13600
H1273       H  0.80899001  0.79141112  0.28432443     0.13500
H1274       H  0.85386733  0.77141959  0.28404793     0.12500
C1275       C  0.56715636  0.06976497  0.30794528     0.18900
C1276       C  0.56875670  0.04291004  0.29911167    -0.10300
C1277       C  0.58610002  0.01159702  0.29945591    -0.11100
C1278       C  0.60188549  0.00686963  0.30865385     0.20400
C1279       C  0.60035073  0.03377903  0.31748143    -0.13100
C1280       C  0.58298378  0.06511669  0.31713857    -0.11400
C1281       C  0.62021936  0.97526259  0.30885161     0.01400
C1282       C  0.63670891  0.95053175  0.30871097    -0.31400
C1283       C  0.54845493  0.10084352  0.30773313     0.02800
C1284       C  0.53111972  0.12407622  0.30737048    -0.33100
H1285       H  0.55650445  0.04605577  0.29199127     0.13800
H1286       H  0.58721740  0.99112595  0.29255620     0.13600
H1287       H  0.61257016  0.03054970  0.32460859     0.13500
H1288       H  0.58180620  0.08553862  0.32404647     0.12500
C1289       C  0.72211723  0.05771272  0.10652905     0.18900
C1290       C  0.69937331  0.04469504  0.11121808    -0.10300
C1291       C  0.69968449  0.02187030  0.12085811    -0.11100
C1292       C  0.72274478  0.01181019  0.12582248     0.20400
C1293       C  0.74548365  0.02486210  0.12113917    -0.13100
C1294       C  0.74517239  0.04768663  0.11150129    -0.11400
C1295       C  0.72302830  0.98958530  0.13596476     0.01400
C1296       C  0.72315643  0.97378212  0.14489154    -0.31400
C1297       C  0.72188190  0.07951289  0.09631519     0.02800
C1298       C  0.72192394  0.09448510  0.08727765    -0.33100
H1299       H  0.68144618  0.05200092  0.10739488     0.13800
H1300       H  0.68198176  0.01215795  0.12444849     0.13600
H1301       H  0.76341492  0.01747880  0.12494707     0.13500
H1302       H  0.76287913  0.05732124  0.10789839     0.12500
C1303       C  0.55875520  0.04411337  0.17936176     0.18900
C1304       C  0.56848330  0.02050183  0.18786754    -0.10300
C1305       C  0.59436962  0.01213424  0.18825793    -0.11100
C1306       C  0.61059828  0.02749353  0.18017395     0.20400
C1307       C  0.60088886  0.05139995  0.17173142    -0.13100
C1308       C  0.57502407  0.05975833  0.17134088    -0.11400
C1309       C  0.63680946  0.01626093  0.18008010     0.01400
C1310       C  0.65784940  0.00273156  0.17954921    -0.31400
C1311       C  0.53222011  0.05316148  0.17891964     0.02800
C1312       C  0.51063020  0.06422106  0.17821060    -0.33100
H1313       H  0.55607735  0.00842382  0.19413663     0.13800
H1314       H  0.60167235  0.99329005  0.19476144     0.13600
H1315       H  0.61323357  0.06310018  0.16538267     0.13500
H1316       H  0.56768803  0.07821461  0.16475763     0.12500
C1317       C  0.85001859  0.75134560  0.17191409     0.18900
C1318       C  0.85776098  0.78786123  0.17633418    -0.10300
C1319       C  0.84108290  0.82008754  0.17653381    -0.11100
C1320       C  0.81659102  0.81594924  0.17229473     0.20400
C1321       C  0.80888477  0.77948131  0.16783302    -0.13100
C1322       C  0.82556164  0.74725166  0.16763539    -0.11400
C1323       C  0.79897750  0.84848148  0.17283410     0.01400
C1324       C  0.78253639  0.87319371  0.17342191    -0.31400
C1325       C  0.86732114  0.71835507  0.17177387     0.02800
C1326       C  0.88337707  0.69295063  0.17191903    -0.33100
H1327       H  0.87665251  0.79136047  0.17965800     0.13800
H1328       H  0.84720944  0.84806101  0.18004808     0.13600
H1329       H  0.78993684  0.77590459  0.16457818     0.13500
H1330       H  0.81937788  0.71919714  0.16419191     0.12500
C1331       C  0.70820223  0.91217279  0.25290371     0.18900
C1332       C  0.72769421  0.93271191  0.24757634    -0.10300
C1333       C  0.72971387  0.93133215  0.23605639    -0.11100
C1334       C  0.71230243  0.90931771  0.22982646     0.20400
C1335       C  0.69284158  0.88873416  0.23515743    -0.13100
C1336       C  0.69082189  0.89011506  0.24667319    -0.11400
C1337       C  0.71397654  0.90907313  0.21796138     0.01400
C1338       C  0.71557316  0.91203082  0.20806419    -0.31400
C1339       C  0.70633970  0.91260647  0.26476315     0.02800
C1340       C  0.70429109  0.90961907  0.27464370    -0.33100
H1341       H  0.74130361  0.94969106  0.25231516     0.13800
H1342       H  0.74476924  0.94751846  0.23200668     0.13600
H1343       H  0.67921351  0.87178453  0.23042047     0.13500
H1344       H  0.67574799  0.87395897  0.25071945     0.12500
loop_ 
_geom_bond_atom_site_label_1 
_geom_bond_atom_site_label_2 
_geom_bond_distance 
_geom_bond_site_symmetry_2 
_ccdc_geom_bond_type 
O1            V9   1.908       .  S
O1           C11   1.265       .  A
O2            V9   1.907       .  S
O2           C12   1.264       .  A
O3            V9   1.892       .  S
O3           C13   1.260       .  A
O4            V9   1.893       .  S
O4           C14   1.261       .  A
O5           V10   1.906       .  S
O5           C14   1.265       .  A
O6           V10   1.906       .  S
O6           C13   1.264       .  A
O7           V10   1.889       .  S
O7           C12   1.260       .  A
O8           V10   1.891       .  S
O8           C11   1.260       .  A
V9           V10   2.091       .  T
C11        C1324   1.434       .  S
C12        C1310   1.431   1_565  S
C13        C1338   1.433       .  S
C14        C1296   1.434       .  S
O15          V23   1.907       .  S
O15          C25   1.265       .  A
O16          V23   1.907       .  S
O16          C26   1.264       .  A
O17          V23   1.893       .  S
O17          C27   1.261       .  A
O18          V23   1.892       .  S
O18          C28   1.260       .  A
O19          V24   1.906       .  S
O19          C28   1.264       .  A
O20          V24   1.907       .  S
O20          C27   1.265       .  A
O21          V24   1.889       .  S
O21          C26   1.260       .  A
O22          V24   1.893       .  S
O22          C25   1.260       .  A
V23          V24   2.091       .  T
C25        C1282   1.435       .  S
C26        C1268   1.431       .  S
C27        C1254   1.435       .  S
C28        C1340   1.433       .  S
O29          V37   1.908       .  S
O29          C39   1.265       .  A
O30          V37   1.907       .  S
O30          C40   1.264       .  A
O31          V37   1.890       .  S
O31          C41   1.260       .  A
O32          V37   1.893       .  S
O32          C42   1.261       .  A
O33          V38   1.906       .  S
O33          C42   1.265       .  A
O34          V38   1.906       .  S
O34          C41   1.264       .  A
O35          V38   1.888       .  S
O35          C40   1.260       .  A
O36          V38   1.891       .  S
O36          C39   1.260       .  A
V37          V38   2.091       .  T
C39        C1326   1.434       .  S
C40        C1226   1.431   1_655  S
C41        C1242   1.432       .  S
C42        C1214   1.434       .  S
O43          V51   1.907   1_455  S
O43          C53   1.265       .  A
O44          V51   1.907       .  S
O44          C54   1.264       .  A
O45          V51   1.893       .  S
O45          C55   1.261       .  A
O46          V51   1.890       .  S
O46          C56   1.260       .  A
O47          V52   1.907       .  S
O47          C56   1.264       .  A
O48          V52   1.907       .  S
O48          C55   1.265       .  A
O49          V52   1.889       .  S
O49          C54   1.260       .  A
O50          V52   1.891       .  S
O50          C53   1.260   1_655  A
V51          V52   2.091       .  T
C53        C1200   1.434       .  S
C54        C1270   1.431       .  S
C55        C1184   1.435       .  S
C56        C1240   1.432       .  S
O57          V65   1.907       .  S
O57          C67   1.265       .  A
O58          V65   1.907       .  S
O58          C68   1.264       .  A
O59          V65   1.889       .  S
O59          C69   1.260       .  A
O60          V65   1.891       .  S
O60          C70   1.260       .  A
O61          V66   1.907       .  S
O61          C70   1.265       .  A
O62          V66   1.907       .  S
O62          C69   1.265       .  A
O63          V66   1.891       .  S
O63          C68   1.260       .  A
O64          V66   1.893       .  S
O64          C67   1.261       .  A
V65          V66   2.091       .  T
C67        C1144   1.435       .  S
C68        C1172   1.433       .  S
C69        C1312   1.431       .  S
C70        C1156   1.434       .  S
O71          V79   1.909       .  S
O71          C81   1.265       .  A
O72          V79   1.908       .  S
O72          C82   1.265       .  A
O73          V79   1.892       .  S
O73          C83   1.260       .  A
O74          V79   1.890       .  S
O74          C84   1.260       .  A
O75          V80   1.907       .  S
O75          C84   1.265       .  A
O76          V80   1.908       .  S
O76          C83   1.265       .  A
O77          V80   1.888       .  S
O77          C82   1.260       .  A
O78          V80   1.891       .  S
O78          C81   1.260       .  A
V79          V80   2.091       .  T
C81        C1284   1.435       .  S
C82        C1128   1.432       .  S
C83        C1114   1.435       .  S
C84        C1170   1.433       .  S
O85          V93   1.906       .  S
O85          C95   1.264       .  A
O86          V93   1.906       .  S
O86          C96   1.264       .  A
O87          V93   1.891       .  S
O87          C97   1.260       .  A
O88          V93   1.893       .  S
O88          C98   1.261       .  A
O89          V94   1.906       .  S
O89          C98   1.264       .  A
O90          V94   1.906       .  S
O90          C97   1.264       .  A
O91          V94   1.890       .  S
O91          C96   1.260       .  A
O92          V94   1.893       .  S
O92          C95   1.261       .  A
V93          V94   2.091       .  T
C95        C1158   1.434       .  S
C96        C1228   1.431       .  S
C97        C1102   1.432       .  S
C98        C1088   1.434       .  S
O99         V107   1.908       .  S
O99         C109   1.265       .  A
O100        V107   1.908       .  S
O100        C110   1.265       .  A
O101        V107   1.894       .  S
O101        C111   1.261       .  A
O102        V107   1.892       .  S
O102        C112   1.260       .  A
O103        V108   1.907       .  S
O103        C112   1.265       .  A
O104        V108   1.908       .  S
O104        C111   1.265       .  A
O105        V108   1.888       .  S
O105        C110   1.260       .  A
O106        V108   1.890       .  S
O106        C109   1.260       .  A
V107        V108   2.091       .  T
C109       C1198   1.434       .  S
C110       C1130   1.431       .  S
C111       C1072   1.437       .  S
C112       C1100   1.433       .  S
O113        V121   1.907       .  S
O113        C123   1.265       .  A
O114        V121   1.907       .  S
O114        C124   1.264       .  A
O115        V121   1.893       .  S
O115        C125   1.261       .  A
O116        V121   1.892       .  S
O116        C126   1.260       .  A
O117        V122   1.907       .  S
O117        C126   1.265       .  A
O118        V122   1.907       .  S
O118        C125   1.265       .  A
O119        V122   1.888       .  S
O119        C124   1.260       .  A
O120        V122   1.890       .  S
O120        C123   1.260       .  A
V121        V122   2.091       .  T
C123       C1046   1.433       .  S
C124       C1030   1.431       .  S
C125       C1016   1.435       .  S
C126       C1060   1.434       .  S
O127        V135   1.907       .  S
O127        C137   1.265       .  A
O128        V135   1.907       .  S
O128        C138   1.264       .  A
O129        V135   1.891       .  S
O129        C139   1.260       .  A
O130        V135   1.892       .  S
O130        C140   1.260       .  A
O131        V136   1.909       .  S
O131        C140   1.265       .  A
O132        V136   1.908       .  S
O132        C139   1.265       .  A
O133        V136   1.890       .  S
O133        C138   1.260       .  A
O134        V136   1.892       .  S
O134        C137   1.260       .  A
V135        V136   2.091       .  T
C137       C1002   1.434       .  S
C138        C990   1.432       .  S
C139       C1058   1.434       .  S
C140        C974   1.436       .  S
O141        V149   1.907       .  S
O141        C151   1.265       .  A
O142        V149   1.906       .  S
O142        C152   1.264       .  A
O143        V149   1.892       .  S
O143        C153   1.260       .  A
O144        V149   1.890       .  S
O144        C154   1.260       .  A
O145        V150   1.906       .  S
O145        C154   1.264       .  A
O146        V150   1.907       .  S
O146        C153   1.265       .  A
O147        V150   1.889       .  S
O147        C152   1.260       .  A
O148        V150   1.890       .  S
O148        C151   1.260       .  A
V149        V150   2.091       .  T
C151        C946   1.433       .  S
C152       C1032   1.431       .  S
C153        C932   1.435       .  S
C154        C960   1.432       .  S
O155        V163   1.908       .  S
O155        C165   1.265       .  A
O156        V163   1.907       .  S
O156        C166   1.265       .  A
O157        V163   1.890       .  S
O157        C167   1.260       .  A
O158        V163   1.892       .  S
O158        C168   1.260       .  A
O159        V164   1.907       .  S
O159        C168   1.265       .  A
O160        V164   1.907       .  S
O160        C167   1.264       .  A
O161        V164   1.889       .  S
O161        C166   1.260       .  A
O162        V164   1.891       .  S
O162        C165   1.260       .  A
V163        V164   2.091       .  T
C165       C1004   1.434       .  S
C166        C920   1.432       .  S
C167        C962   1.432       .  S
C168        C904   1.435       .  S
O169        V177   1.909       .  S
O169        C179   1.265       .  A
O170        V177   1.909       .  S
O170        C180   1.265       .  A
O171        V177   1.892       .  S
O171        C181   1.260       .  A
O172        V177   1.894       .  S
O172        C182   1.261       .  A
O173        V178   1.907       .  S
O173        C182   1.265       .  A
O174        V178   1.906       .  S
O174        C181   1.264       .  A
O175        V178   1.888       .  S
O175        C180   1.260       .  A
O176        V178   1.891       .  S
O176        C179   1.260       .  A
V177        V178   2.091       .  T
C179        C876   1.435       .  S
C180        C918   1.432       .  S
C181        C890   1.433       .  S
C182        C862   1.435       .  S
O183        V191   1.906       .  S
O183        C193   1.264       .  A
O184        V191   1.905       .  S
O184        C194   1.264       .  A
O185        V191   1.894       .  S
O185        C195   1.261       .  A
O186        V191   1.891       .  S
O186        C196   1.260       .  A
O187        V192   1.907       .  S
O187        C196   1.264       .  A
O188        V192   1.906       .  S
O188        C195   1.265       .  A
O189        V192   1.888       .  S
O189        C194   1.260       .  A
O190        V192   1.892       .  S
O190        C193   1.260       .  A
V191        V192   2.091       .  T
C193        C948   1.433       .  S
C194        C848   1.430       .  S
C195        C834   1.435       .  S
C196        C892   1.433       .  S
O197        V205   1.908       .  S
O197        C207   1.265       .  A
O198        V205   1.908       .  S
O198        C208   1.265       .  A
O199        V205   1.892       .  S
O199        C209   1.260       .  A
O200        V205   1.894       .  S
O200        C210   1.261       .  A
O201        V206   1.907       .  S
O201        C210   1.265       .  A
O202        V206   1.907       .  S
O202        C209   1.265       .  A
O203        V206   1.889       .  S
O203        C208   1.260       .  A
O204        V206   1.892       .  S
O204        C207   1.260       .  A
V205        V206   2.091       .  T
C207        C878   1.435       .  S
C208        C988   1.432   1_655  S
C209        C820   1.434       .  S
C210        C806   1.435       .  S
O211        V219   1.906   1_455  S
O211        C221   1.264       .  A
O212        V219   1.906       .  S
O212        C222   1.264       .  A
O213        V219   1.893       .  S
O213        C223   1.261       .  A
O214        V219   1.892       .  S
O214        C224   1.261       .  A
O215        V220   1.906       .  S
O215        C224   1.264       .  A
O216        V220   1.906       .  S
O216        C223   1.264       .  A
O217        V220   1.888       .  S
O217        C222   1.260       .  A
O218        V220   1.891   1_455  S
O218        C221   1.260       .  A
V219        V220   2.091       .  T
C221       C1044   1.433       .  S
C222        C850   1.430       .  S
C223        C792   1.434       .  S
C224        C822   1.433       .  S
O225        V233   1.907       .  S
O225        C235   1.265       .  A
O226        V233   1.907       .  S
O226        C236   1.264       .  A
O227        V233   1.892       .  S
O227        C237   1.261       .  A
O228        V233   1.895       .  S
O228        C238   1.261       .  A
O229        V234   1.906       .  S
O229        C238   1.264       .  A
O230        V234   1.905       .  S
O230        C237   1.264       .  A
O231        V234   1.889       .  S
O231        C236   1.260       .  A
O232        V234   1.890       .  S
O232        C235   1.260       .  A
V233        V234   2.091       .  T
C235        C766   1.432       .  S
C236        C750   1.431       .  S
C237        C778   1.432       .  S
C238        C864   1.435       .  S
O239        V247   1.909       .  S
O239        C249   1.265       .  A
O240        V247   1.909       .  S
O240        C250   1.265       .  A
O241        V247   1.893       .  S
O241        C251   1.261       .  A
O242        V247   1.890       .  S
O242        C252   1.260       .  A
O243        V248   1.907       .  S
O243        C252   1.265       .  A
O244        V248   1.907       .  S
O244        C251   1.265       .  A
O245        V248   1.889       .  S
O245        C250   1.260       .  A
O246        V248   1.891       .  S
O246        C249   1.260       .  A
V247        V248   2.091       .  T
C249        C736   1.435       .  S
C250        C722   1.433       .  S
C251       C1256   1.435       .  S
C252        C780   1.432       .  S
O253        V261   1.910   1_455  S
O253        C263   1.266       .  A
O254        V261   1.909       .  S
O254        C264   1.265       .  A
O255        V261   1.893       .  S
O255        C265   1.261       .  A
O256        V261   1.891       .  S
O256        C266   1.260       .  A
O257        V262   1.907       .  S
O257        C266   1.265       .  A
O258        V262   1.907       .  S
O258        C265   1.265       .  A
O259        V262   1.889       .  S
O259        C264   1.260       .  A
O260        V262   1.892       .  S
O260        C263   1.260   1_655  A
V261        V262   2.091       .  T
C263        C694   1.437       .  S
C264        C724   1.433       .  S
C265       C1186   1.435       .  S
C266        C708   1.433       .  S
O267        V275   1.906       .  S
O267        C277   1.264       .  A
O268        V275   1.905       .  S
O268        C278   1.264       .  A
O269        V275   1.891       .  S
O269        C279   1.260       .  A
O270        V275   1.894       .  S
O270        C280   1.261       .  A
O271        V276   1.907       .  S
O271        C280   1.265       .  A
O272        V276   1.907       .  S
O272        C279   1.264       .  A
O273        V276   1.889       .  S
O273        C278   1.260       .  A
O274        V276   1.891       .  S
O274        C277   1.260       .  A
V275        V276   2.091       .  T
C277        C764   1.432       .  S
C278        C680   1.430   1_655  S
C279        C710   1.433       .  S
C280        C808   1.435       .  S
O281        V289   1.910       .  S
O281        C291   1.265       .  A
O282        V289   1.909       .  S
O282        C292   1.265       .  A
O283        V289   1.895       .  S
O283        C293   1.261       .  A
O284        V289   1.894       .  S
O284        C294   1.261       .  A
O285        V290   1.907       .  S
O285        C294   1.265       .  A
O286        V290   1.908       .  S
O286        C293   1.265       .  A
O287        V290   1.889       .  S
O287        C292   1.260       .  A
O288        V290   1.893       .  S
O288        C291   1.260       .  A
V289        V290   2.091       .  T
C291        C696   1.437       .  S
C292        C652   1.433       .  S
C293       C1074   1.437       .  S
C294        C666   1.435       .  S
O295        V303   1.906       .  S
O295        C305   1.264       .  A
O296        V303   1.906       .  S
O296        C306   1.264       .  A
O297        V303   1.892       .  S
O297        C307   1.260       .  A
O298        V303   1.893       .  S
O298        C308   1.261       .  A
O299        V304   1.908       .  S
O299        C308   1.265       .  A
O300        V304   1.908       .  S
O300        C307   1.265       .  A
O301        V304   1.888       .  S
O301        C306   1.260       .  A
O302        V304   1.891       .  S
O302        C305   1.260       .  A
V303        V304   2.091       .  T
C305        C640   1.433       .  S
C306        C682   1.430       .  S
C307        C668   1.434       .  S
C308        C976   1.436       .  S
O309        V317   1.906       .  S
O309        C319   1.264       .  A
O310        V317   1.906       .  S
O310        C320   1.264       .  A
O311        V317   1.892       .  S
O311        C321   1.261       .  A
O312        V317   1.894       .  S
O312        C322   1.261       .  A
O313        V318   1.906       .  S
O313        C322   1.264       .  A
O314        V318   1.905       .  S
O314        C321   1.264       .  A
O315        V318   1.889       .  S
O315        C320   1.260       .  A
O316        V318   1.891       .  S
O316        C319   1.260       .  A
V317        V318   2.091       .  T
C319        C638   1.433       .  S
C320        C752   1.431       .  S
C321        C624   1.433       .  S
C322        C906   1.434       .  S
O323        V331   1.909       .  S
O323        C333   1.265       .  A
O324        V331   1.908       .  S
O324        C334   1.265       .  A
O325        V331   1.893       .  S
O325        C335   1.261       .  A
O326        V331   1.891       .  S
O326        C336   1.260       .  A
O327        V332   1.907       .  S
O327        C336   1.265       .  A
O328        V332   1.908       .  S
O328        C335   1.265       .  A
O329        V332   1.890       .  S
O329        C334   1.260       .  A
O330        V332   1.892       .  S
O330        C333   1.260       .  A
V331        V332   2.091       .  T
C333        C738   1.436       .  S
C334        C654   1.433       .  S
C335       C1116   1.435       .  S
C336        C626   1.433       .  S
O337        V345   1.908       .  S
O337        C347   1.265       .  A
O338        V345   1.907       .  S
O338        C348   1.265       .  A
O339        V345   1.894       .  S
O339        C349   1.261       .  A
O340        V345   1.891       .  S
O340        C350   1.260       .  A
O341        V346   1.907       .  S
O341        C350   1.264       .  A
O342        V346   1.907       .  S
O342        C349   1.265       .  A
O343        V346   1.889       .  S
O343        C348   1.260       .  A
O344        V346   1.891       .  S
O344        C347   1.260       .  A
V345        V346   2.091       .  T
C347        C596   1.434       .  S
C348        C582   1.432       .  S
C349       C1018   1.435       .  S
C350        C610   1.433       .  S
O351        V359   1.908       .  S
O351        C361   1.265       .  A
O352        V359   1.907       .  S
O352        C362   1.265       .  A
O353        V359   1.891       .  S
O353        C363   1.260       .  A
O354        V359   1.892       .  S
O354        C364   1.261       .  A
O355        V360   1.907       .  S
O355        C364   1.265       .  A
O356        V360   1.906       .  S
O356        C363   1.264       .  A
O357        V360   1.890       .  S
O357        C362   1.260       .  A
O358        V360   1.891       .  S
O358        C361   1.260       .  A
V359        V360   2.091       .  T
C361        C570   1.435       .  S
C362        C554   1.432       .  S
C363        C612   1.433       .  S
C364       C1086   1.434       .  S
O365        V373   1.908       .  S
O365        C375   1.265       .  A
O366        V373   1.908       .  S
O366        C376   1.265       .  A
O367        V373   1.892       .  S
O367        C377   1.260       .  A
O368        V373   1.890       .  S
O368        C378   1.260       .  A
O369        V374   1.908       .  S
O369        C378   1.265       .  A
O370        V374   1.908       .  S
O370        C377   1.265       .  A
O371        V374   1.889       .  S
O371        C376   1.260       .  A
O372        V374   1.891       .  S
O372        C375   1.260       .  A
V373        V374   2.091       .  T
C375        C528   1.434       .  S
C376        C512   1.432       .  S
C377        C836   1.435       .  S
C378        C540   1.433       .  S
O379        V387   1.908       .  S
O379        C389   1.265       .  A
O380        V387   1.908       .  S
O380        C390   1.265       .  A
O381        V387   1.888       .  S
O381        C391   1.259       .  A
O382        V387   1.890       .  S
O382        C392   1.260       .  A
O383        V388   1.908       .  S
O383        C392   1.265       .  A
O384        V388   1.907       .  S
O384        C391   1.265       .  A
O385        V388   1.890       .  S
O385        C390   1.260       .  A
O386        V388   1.891       .  S
O386        C389   1.260       .  A
V387        V388   2.091       .  T
C389       C1298   1.434       .  S
C390        C542   1.433       .  S
C391        C484   1.431       .  S
C392        C500   1.433       .  S
O393        V401   1.907       .  S
O393        C403   1.265       .  A
O394        V401   1.907       .  S
O394        C404   1.264       .  A
O395        V401   1.894       .  S
O395        C405   1.261       .  A
O396        V401   1.892       .  S
O396        C406   1.261       .  A
O397        V402   1.905       .  S
O397        C406   1.264       .  A
O398        V402   1.905       .  S
O398        C405   1.264       .  A
O399        V402   1.889       .  S
O399        C404   1.260       .  A
O400        V402   1.892       .  S
O400        C403   1.260       .  A
V401        V402   2.091       .  T
C403        C526   1.434       .  S
C404        C584   1.432       .  S
C405        C934   1.434       .  S
C406        C470   1.433       .  S
O407        V415   1.907       .  S
O407        C417   1.265       .  A
O408        V415   1.907       .  S
O408        C418   1.264       .  A
O409        V415   1.891       .  S
O409        C419   1.260       .  A
O410        V415   1.893       .  S
O410        C420   1.261       .  A
O411        V416   1.907       .  S
O411        C420   1.265       .  A
O412        V416   1.906       .  S
O412        C419   1.264       .  A
O413        V416   1.889       .  S
O413        C418   1.260       .  A
O414        V416   1.893       .  S
O414        C417   1.261       .  A
V415        V416   2.091       .  T
C417        C568   1.435       .  S
C418        C486   1.431       .  S
C419        C472   1.432       .  S
C420       C1142   1.435       .  S
O421        V429   1.906       .  S
O421        C431   1.264       .  A
O422        V429   1.905       .  S
O422        C432   1.264       .  A
O423        V429   1.891       .  S
O423        C433   1.260   1_655  A
O424        V429   1.889       .  S
O424        C434   1.260       .  A
O425        V430   1.908       .  S
O425        C434   1.265       .  A
O426        V430   1.908   1_455  S
O426        C433   1.265       .  A
O427        V430   1.892       .  S
O427        C432   1.260       .  A
O428        V430   1.893       .  S
O428        C431   1.261       .  A
V429        V430   2.091       .  T
C431        C794   1.434       .  S
C432        C456   1.432       .  S
C433        C598   1.434       .  S
C434        C514   1.432       .  S
O435        V443   1.907       .  S
O435        C445   1.265       .  A
O436        V443   1.908       .  S
O436        C446   1.265       .  A
O437        V443   1.891       .  S
O437        C447   1.260       .  A
O438        V443   1.893       .  S
O438        C448   1.261       .  A
O439        V444   1.905       .  S
O439        C448   1.264       .  A
O440        V444   1.905       .  S
O440        C447   1.264       .  A
O441        V444   1.888       .  S
O441        C446   1.260       .  A
O442        V444   1.890       .  S
O442        C445   1.260       .  A
V443        V444   2.091       .  T
C445        C498   1.433       .  S
C446        C556   1.432   1_655  S
C447        C458   1.432       .  S
C448       C1212   1.434       .  S
C449        C457   1.437       .  S
C449        C450   1.401   1_554  A
C449        C454   1.400   1_554  A
C450        C451   1.398       .  A
C450        H459   1.084   1_556  S
C451        C452   1.400       .  A
C451        H460   1.083       .  S
C452        C455   1.437       .  S
C452        C453   1.402       .  A
C453        C454   1.398       .  A
C453        H461   1.084       .  S
C454        H462   1.083       .  S
C455        C456   1.204       .  T
C457        C458   1.204       .  T
C463        C471   1.438       .  S
C463        C464   1.401   1_554  A
C463        C468   1.401   1_554  A
C464        C465   1.399       .  A
C464        H473   1.083   1_556  S
C465        C466   1.401       .  A
C465        H474   1.083       .  S
C466        C469   1.438       .  S
C466        C467   1.401       .  A
C467        C468   1.398       .  A
C467        H475   1.083       .  S
C468        H476   1.083       .  S
C469        C470   1.205       .  T
C471        C472   1.205       .  T
C477        C485   1.437       .  S
C477        C478   1.401       .  A
C477        C482   1.400       .  A
C478        C479   1.399       .  A
C478        H487   1.083       .  S
C479        C480   1.401       .  A
C479        H488   1.083       .  S
C480        C483   1.437       .  S
C480        C481   1.401       .  A
C481        C482   1.397       .  A
C481        H489   1.084       .  S
C482        H490   1.084       .  S
C483        C484   1.204       .  T
C485        C486   1.204   1_545  T
C491        C499   1.439       .  S
C491        C492   1.402       .  A
C491        C496   1.400       .  A
C492        C493   1.398       .  A
C492        H501   1.084       .  S
C493        C494   1.400       .  A
C493        H502   1.083       .  S
C494        C497   1.438       .  S
C494        C495   1.402       .  A
C495        C496   1.399       .  A
C495        H503   1.083       .  S
C496        H504   1.083       .  S
C497        C498   1.205       .  T
C499        C500   1.205       .  T
C505        C513   1.437       .  S
C505        C506   1.400       .  A
C505        C510   1.402       .  A
C506        C507   1.397       .  A
C506        H515   1.084       .  S
C507        C508   1.401       .  A
C507        H516   1.084       .  S
C508        C511   1.438       .  S
C508        C509   1.401       .  A
C509        C510   1.399       .  A
C509        H517   1.083       .  S
C510        H518   1.083       .  S
C511        C512   1.204       .  T
C513        C514   1.204       .  T
C519        C527   1.439       .  S
C519        C520   1.401       .  A
C519        C524   1.402       .  A
C520        C521   1.399       .  A
C520        H529   1.083       .  S
C521        C522   1.402   1_545  A
C521        H530   1.083       .  S
C522        C525   1.439       .  S
C522        C523   1.400       .  A
C523        C524   1.398   1_565  A
C523        H531   1.083       .  S
C524        H532   1.084       .  S
C525        C526   1.205       .  T
C527        C528   1.205       .  T
C533        C541   1.439       .  S
C533        C534   1.400   1_554  A
C533        C538   1.402   1_554  A
C534        C535   1.398       .  A
C534        H543   1.083       .  S
C535        C536   1.402       .  A
C535        H544   1.084       .  S
C536        C539   1.439       .  S
C536        C537   1.400       .  A
C537        C538   1.399       .  A
C537        H545   1.083       .  S
C538        H546   1.084   1_556  S
C539        C540   1.205       .  T
C541        C542   1.205       .  T
C547        C555   1.438       .  S
C547        C548   1.401       .  A
C547        C552   1.401       .  A
C548        C549   1.397       .  A
C548        H557   1.084       .  S
C549        C550   1.400       .  A
C549        H558   1.084       .  S
C550        C553   1.438       .  S
C550        C551   1.402       .  A
C551        C552   1.399       .  A
C551        H559   1.083       .  S
C552        H560   1.083       .  S
C553        C554   1.204       .  T
C555        C556   1.204       .  T
C561        C569   1.440       .  S
C561        C562   1.402       .  A
C561        C566   1.401       .  A
C562        C563   1.399       .  A
C562        H571   1.083       .  S
C563        C564   1.400       .  A
C563        H572   1.083       .  S
C564        C567   1.440       .  S
C564        C565   1.402       .  A
C565        C566   1.399       .  A
C565        H573   1.083       .  S
C566        H574   1.083       .  S
C567        C568   1.206       .  T
C569        C570   1.206       .  T
C575        C583   1.438       .  S
C575        C576   1.402       .  A
C575        C580   1.400       .  A
C576        C577   1.397       .  A
C576        H585   1.084       .  S
C577        C578   1.399       .  A
C577        H586   1.083       .  S
C578        C581   1.438       .  S
C578        C579   1.402       .  A
C579        C580   1.399       .  A
C579        H587   1.083       .  S
C580        H588   1.083       .  S
C581        C582   1.204       .  T
C583        C584   1.204       .  T
C589        C597   1.440       .  S
C589        C590   1.400       .  A
C589        C594   1.402       .  A
C590        C591   1.399       .  A
C590        H599   1.083       .  S
C591        C592   1.402       .  A
C591        H600   1.084       .  S
C592        C595   1.440       .  S
C592        C593   1.401       .  A
C593        C594   1.399       .  A
C593        H601   1.083       .  S
C594        H602   1.084       .  S
C595        C596   1.206       .  T
C597        C598   1.206       .  T
C603        C611   1.438       .  S
C603        C604   1.401   1_554  A
C603        C608   1.401   1_554  A
C604        C605   1.398       .  A
C604        H613   1.083   1_556  S
C605        C606   1.401       .  A
C605        H614   1.083       .  S
C606        C609   1.438       .  S
C606        C607   1.401       .  A
C607        C608   1.398       .  A
C607        H615   1.083       .  S
C608        H616   1.083       .  S
C609        C610   1.205       .  T
C611        C612   1.205       .  T
C617        C625   1.438       .  S
C617        C618   1.402       .  A
C617        C622   1.400       .  A
C618        C619   1.398       .  A
C618        H627   1.084       .  S
C619        C620   1.400       .  A
C619        H628   1.083       .  S
C620        C623   1.438       .  S
C620        C621   1.402       .  A
C621        C622   1.399       .  A
C621        H629   1.083       .  S
C622        H630   1.083       .  S
C623        C624   1.205       .  T
C625        C626   1.205       .  T
C631        C639   1.438       .  S
C631        C632   1.402       .  A
C631        C636   1.400       .  A
C632        C633   1.399       .  A
C632        H641   1.084       .  S
C633        C634   1.400       .  A
C633        H642   1.083       .  S
C634        C637   1.438       .  S
C634        C635   1.402       .  A
C635        C636   1.398       .  A
C635        H643   1.084       .  S
C636        H644   1.083       .  S
C637        C638   1.205       .  T
C639        C640   1.205       .  T
C645        C653   1.439       .  S
C645        C646   1.402       .  A
C645        C650   1.401       .  A
C646        C647   1.399       .  A
C646        H655   1.083       .  S
C647        C648   1.401       .  A
C647        H656   1.083       .  S
C648        C651   1.439       .  S
C648        C649   1.401       .  A
C649        C650   1.398       .  A
C649        H657   1.084       .  S
C650        H658   1.083       .  S
C651        C652   1.205       .  T
C653        C654   1.205       .  T
C659        C667   1.440       .  S
C659        C660   1.401       .  A
C659        C664   1.402       .  A
C660        C661   1.399       .  A
C660        H669   1.083       .  S
C661        C662   1.402       .  A
C661        H670   1.083       .  S
C662        C665   1.440       .  S
C662        C663   1.401       .  A
C663        C664   1.399       .  A
C663        H671   1.083       .  S
C664        H672   1.083       .  S
C665        C666   1.206       .  T
C667        C668   1.206       .  T
C673        C681   1.436       .  S
C673        C674   1.401       .  A
C673        C678   1.400   1_545  A
C674        C675   1.398       .  A
C674        H683   1.083       .  S
C675        C676   1.400   1_545  A
C675        H684   1.083       .  S
C676        C679   1.436       .  S
C676        C677   1.401       .  A
C677        C678   1.397       .  A
C677        H685   1.084       .  S
C678        H686   1.084       .  S
C679        C680   1.203       .  T
C681        C682   1.203       .  T
C687        C695   1.442       .  S
C687        C688   1.402       .  A
C687        C692   1.401       .  A
C688        C689   1.400   1_545  A
C688        H697   1.083       .  S
C689        C690   1.401       .  A
C689        H698   1.083       .  S
C690        C693   1.442       .  S
C690        C691   1.403   1_565  A
C691        C692   1.400       .  A
C691        H699   1.083       .  S
C692        H700   1.083       .  S
C693        C694   1.207       .  T
C695        C696   1.207       .  T
C701        C709   1.438       .  S
C701        C702   1.400       .  A
C701        C706   1.402       .  A
C702        C703   1.398       .  A
C702        H711   1.083       .  S
C703        C704   1.402       .  A
C703        H712   1.084       .  S
C704        C707   1.438       .  S
C704        C705   1.400       .  A
C705        C706   1.398       .  A
C705        H713   1.083       .  S
C706        H714   1.084       .  S
C707        C708   1.205       .  T
C709        C710   1.205       .  T
C715        C723   1.439       .  S
C715        C716   1.400       .  A
C715        C720   1.402       .  A
C716        C717   1.398       .  A
C716        H725   1.083       .  S
C717        C718   1.402       .  A
C717        H726   1.084       .  S
C718        C721   1.439       .  S
C718        C719   1.400       .  A
C719        C720   1.399       .  A
C719        H727   1.083       .  S
C720        H728   1.083       .  S
C721        C722   1.205       .  T
C723        C724   1.205       .  T
C729        C737   1.441       .  S
C729        C730   1.402       .  A
C729        C734   1.401       .  A
C730        C731   1.399       .  A
C730        H739   1.083       .  S
C731        C732   1.401       .  A
C731        H740   1.083       .  S
C732        C735   1.441       .  S
C732        C733   1.402       .  A
C733        C734   1.400       .  A
C733        H741   1.083       .  S
C734        H742   1.083       .  S
C735        C736   1.206       .  T
C737        C738   1.207       .  T
C743        C751   1.437       .  S
C743        C744   1.400       .  A
C743        C748   1.401       .  A
C744        C745   1.397       .  A
C744        H753   1.084       .  S
C745        C746   1.400       .  A
C745        H754   1.084       .  S
C746        C749   1.437       .  S
C746        C747   1.401       .  A
C747        C748   1.399       .  A
C747        H755   1.083       .  S
C748        H756   1.083       .  S
C749        C750   1.204       .  T
C751        C752   1.204       .  T
C757        C765   1.438       .  S
C757        C758   1.401       .  A
C757        C762   1.401       .  A
C758        C759   1.398       .  A
C758        H767   1.083       .  S
C759        C760   1.401       .  A
C759        H768   1.084       .  S
C760        C763   1.438       .  S
C760        C761   1.401       .  A
C761        C762   1.398       .  A
C761        H769   1.083       .  S
C762        H770   1.084       .  S
C763        C764   1.205       .  T
C765        C766   1.205       .  T
C771        C779   1.438       .  S
C771        C772   1.401       .  A
C771        C776   1.401       .  A
C772        C773   1.398       .  A
C772        H781   1.084       .  S
C773        C774   1.401       .  A
C773        H782   1.083       .  S
C774        C777   1.438       .  S
C774        C775   1.401       .  A
C775        C776   1.399       .  A
C775        H783   1.083       .  S
C776        H784   1.083       .  S
C777        C778   1.205       .  T
C779        C780   1.205       .  T
C785        C793   1.439       .  S
C785        C786   1.402   1_655  A
C785        C790   1.401       .  A
C786        C787   1.399       .  A
C786        H795   1.083       .  S
C787        C788   1.401   1_455  A
C787        H796   1.083       .  S
C788        C791   1.440       .  S
C788        C789   1.402       .  A
C789        C790   1.399       .  A
C789        H797   1.083       .  S
C790        H798   1.083       .  S
C791        C792   1.206       .  T
C793        C794   1.206       .  T
C799        C807   1.441       .  S
C799        C800   1.401       .  A
C799        C804   1.402       .  A
C800        C801   1.399   1_565  A
C800        H809   1.083       .  S
C801        C802   1.401       .  A
C801        H810   1.083       .  S
C802        C805   1.441       .  S
C802        C803   1.402       .  A
C803        C804   1.400   1_545  A
C803        H811   1.083       .  S
C804        H812   1.083       .  S
C805        C806   1.206       .  T
C807        C808   1.206       .  T
C813        C821   1.439       .  S
C813        C814   1.402       .  A
C813        C818   1.400       .  A
C814        C815   1.399       .  A
C814        H823   1.084       .  S
C815        C816   1.400       .  A
C815        H824   1.083       .  S
C816        C819   1.439       .  S
C816        C817   1.402       .  A
C817        C818   1.398       .  A
C817        H825   1.084       .  S
C818        H826   1.083       .  S
C819        C820   1.205       .  T
C821        C822   1.205       .  T
C827        C835   1.440       .  S
C827        C828   1.402       .  A
C827        C832   1.401       .  A
C828        C829   1.400       .  A
C828        H837   1.083       .  S
C829        C830   1.401       .  A
C829        H838   1.083       .  S
C830        C833   1.441       .  S
C830        C831   1.402       .  A
C831        C832   1.399       .  A
C831        H839   1.083       .  S
C832        H840   1.083       .  S
C833        C834   1.206       .  T
C835        C836   1.206       .  T
C841        C849   1.436       .  S
C841        C842   1.402       .  A
C841        C846   1.399       .  A
C842        C843   1.398       .  A
C842        H851   1.083       .  S
C843        C844   1.400       .  A
C843        H852   1.083       .  S
C844        C847   1.436       .  S
C844        C845   1.401       .  A
C845        C846   1.397       .  A
C845        H853   1.084       .  S
C846        H854   1.083       .  S
C847        C848   1.203       .  T
C849        C850   1.203       .  T
C855        C863   1.440       .  S
C855        C856   1.402       .  A
C855        C860   1.401       .  A
C856        C857   1.400       .  A
C856        H865   1.083       .  S
C857        C858   1.402       .  A
C857        H866   1.083       .  S
C858        C861   1.441       .  S
C858        C859   1.401       .  A
C859        C860   1.399       .  A
C859        H867   1.083       .  S
C860        H868   1.083       .  S
C861        C862   1.206       .  T
C863        C864   1.206       .  T
C869        C877   1.441       .  S
C869        C870   1.403       .  A
C869        C874   1.400       .  A
C870        C871   1.400       .  A
C870        H879   1.084       .  S
C871        C872   1.401       .  A
C871        H880   1.083       .  S
C872        C875   1.441       .  S
C872        C873   1.402       .  A
C873        C874   1.399       .  A
C873        H881   1.084       .  S
C874        H882   1.083       .  S
C875        C876   1.206       .  T
C877        C878   1.206       .  T
C883        C891   1.438       .  S
C883        C884   1.400       .  A
C883        C888   1.402       .  A
C884        C885   1.399       .  A
C884        H893   1.083       .  S
C885        C886   1.402       .  A
C885        H894   1.084       .  S
C886        C889   1.438       .  S
C886        C887   1.400       .  A
C887        C888   1.398       .  A
C887        H895   1.083       .  S
C888        H896   1.084       .  S
C889        C890   1.205       .  T
C891        C892   1.205       .  T
C897        C905   1.440       .  S
C897        C898   1.401       .  A
C897        C902   1.402       .  A
C898        C899   1.399       .  A
C898        H907   1.083       .  S
C899        C900   1.402       .  A
C899        H908   1.083       .  S
C900        C903   1.440       .  S
C900        C901   1.401       .  A
C901        C902   1.399       .  A
C901        H909   1.083       .  S
C902        H910   1.083       .  S
C903        C904   1.206       .  T
C905        C906   1.206       .  T
C911        C919   1.438       .  S
C911        C912   1.400       .  A
C911        C916   1.402       .  A
C912        C913   1.397       .  A
C912        H921   1.084       .  S
C913        C914   1.401       .  A
C913        H922   1.084       .  S
C914        C917   1.438       .  S
C914        C915   1.402       .  A
C915        C916   1.400       .  A
C915        H923   1.083       .  S
C916        H924   1.083       .  S
C917        C918   1.204       .  T
C919        C920   1.204       .  T
C925        C933   1.440       .  S
C925        C926   1.401       .  A
C925        C930   1.401       .  A
C926        C927   1.399       .  A
C926        H935   1.083       .  S
C927        C928   1.401       .  A
C927        H936   1.083       .  S
C928        C931   1.440       .  S
C928        C929   1.402       .  A
C929        C930   1.400       .  A
C929        H937   1.083       .  S
C930        H938   1.083       .  S
C931        C932   1.206       .  T
C933        C934   1.206       .  T
C939        C947   1.438       .  S
C939        C940   1.402       .  A
C939        C944   1.400       .  A
C940        C941   1.399       .  A
C940        H949   1.083       .  S
C941        C942   1.400       .  A
C941        H950   1.083       .  S
C942        C945   1.438       .  S
C942        C943   1.402       .  A
C943        C944   1.398       .  A
C943        H951   1.083       .  S
C944        H952   1.083       .  S
C945        C946   1.205       .  T
C947        C948   1.205       .  T
C953        C961   1.437       .  S
C953        C954   1.401       .  A
C953        C958   1.401       .  A
C954        C955   1.398       .  A
C954        H963   1.083       .  S
C955        C956   1.401       .  A
C955        H964   1.083       .  S
C956        C959   1.438       .  S
C956        C957   1.401       .  A
C957        C958   1.398       .  A
C957        H965   1.083       .  S
C958        H966   1.084       .  S
C959        C960   1.204       .  T
C961        C962   1.204       .  T
C967        C975   1.441       .  S
C967        C968   1.403   1_545  A
C967        C972   1.400       .  A
C968        C969   1.400       .  A
C968        H977   1.083       .  S
C969        C970   1.401       .  A
C969        H978   1.083       .  S
C970        C973   1.441       .  S
C970        C971   1.403   1_565  A
C971        C972   1.399       .  A
C971        H979   1.084       .  S
C972        H980   1.083       .  S
C973        C974   1.207       .  T
C975        C976   1.207       .  T
C981        C989   1.438       .  S
C981        C982   1.401       .  A
C981        C986   1.400   1_565  A
C982        C983   1.398       .  A
C982        H991   1.084       .  S
C983        C984   1.400   1_565  A
C983        H992   1.083       .  S
C984        C987   1.438       .  S
C984        C985   1.402       .  A
C985        C986   1.399       .  A
C985        H993   1.083       .  S
C986        H994   1.083       .  S
C987        C988   1.204       .  T
C989        C990   1.204       .  T
C995       C1003   1.439       .  S
C995        C996   1.402       .  A
C995       C1000   1.401       .  A
C996        C997   1.398       .  A
C996       H1005   1.084       .  S
C997        C998   1.400       .  A
C997       H1006   1.083       .  S
C998       C1001   1.439       .  S
C998        C999   1.402       .  A
C999       C1000   1.400       .  A
C999       H1007   1.083       .  S
C1000      H1008   1.083       .  S
C1001      C1002   1.205       .  T
C1003      C1004   1.205       .  T
C1009      C1017   1.441       .  S
C1009      C1010   1.401       .  A
C1009      C1014   1.402       .  A
C1010      C1011   1.399       .  A
C1010      H1019   1.083       .  S
C1011      C1012   1.402       .  A
C1011      H1020   1.083       .  S
C1012      C1015   1.441       .  S
C1012      C1013   1.401       .  A
C1013      C1014   1.399       .  A
C1013      H1021   1.083       .  S
C1014      H1022   1.083       .  S
C1015      C1016   1.206       .  T
C1017      C1018   1.206       .  T
C1023      C1031   1.437       .  S
C1023      C1024   1.400       .  A
C1023      C1028   1.402       .  A
C1024      C1025   1.398       .  A
C1024      H1033   1.083       .  S
C1025      C1026   1.402       .  A
C1025      H1034   1.084       .  S
C1026      C1029   1.436       .  S
C1026      C1027   1.400       .  A
C1027      C1028   1.397       .  A
C1027      H1035   1.083       .  S
C1028      H1036   1.084       .  S
C1029      C1030   1.204       .  T
C1031      C1032   1.204       .  T
C1037      C1045   1.438       .  S
C1037      C1038   1.400       .  A
C1037      C1042   1.402   1_565  A
C1038      C1039   1.399   1_565  A
C1038      H1047   1.083       .  S
C1039      C1040   1.402       .  A
C1039      H1048   1.084       .  S
C1040      C1043   1.438       .  S
C1040      C1041   1.400       .  A
C1041      C1042   1.398       .  A
C1041      H1049   1.083       .  S
C1042      H1050   1.084       .  S
C1043      C1044   1.205       .  T
C1045      C1046   1.205       .  T
C1051      C1059   1.439       .  S
C1051      C1052   1.401       .  A
C1051      C1056   1.401       .  A
C1052      C1053   1.399       .  A
C1052      H1061   1.083       .  S
C1053      C1054   1.401       .  A
C1053      H1062   1.083       .  S
C1054      C1057   1.439       .  S
C1054      C1055   1.401       .  A
C1055      C1056   1.399       .  A
C1055      H1063   1.083       .  S
C1056      H1064   1.083       .  S
C1057      C1058   1.205       .  T
C1059      C1060   1.205       .  T
C1065      C1073   1.442       .  S
C1065      C1066   1.402       .  A
C1065      C1070   1.401       .  A
C1066      C1067   1.400       .  A
C1066      H1075   1.083       .  S
C1067      C1068   1.401       .  A
C1067      H1076   1.083       .  S
C1068      C1071   1.442       .  S
C1068      C1069   1.402       .  A
C1069      C1070   1.400       .  A
C1069      H1077   1.083       .  S
C1070      H1078   1.083       .  S
C1071      C1072   1.207       .  T
C1073      C1074   1.207       .  T
C1079      C1087   1.439       .  S
C1079      C1080   1.402       .  A
C1079      C1084   1.400       .  A
C1080      C1081   1.399       .  A
C1080      H1089   1.084       .  S
C1081      C1082   1.401       .  A
C1081      H1090   1.083       .  S
C1082      C1085   1.439       .  S
C1082      C1083   1.402       .  A
C1083      C1084   1.398       .  A
C1083      H1091   1.084       .  S
C1084      H1092   1.083       .  S
C1085      C1086   1.206       .  T
C1087      C1088   1.206       .  T
C1093      C1101   1.438       .  S
C1093      C1094   1.401       .  A
C1093      C1098   1.401       .  A
C1094      C1095   1.398       .  A
C1094      H1103   1.084       .  S
C1095      C1096   1.401       .  A
C1095      H1104   1.083       .  S
C1096      C1099   1.439       .  S
C1096      C1097   1.401       .  A
C1097      C1098   1.399       .  A
C1097      H1105   1.083       .  S
C1098      H1106   1.083       .  S
C1099      C1100   1.205       .  T
C1101      C1102   1.205       .  T
C1107      C1115   1.441       .  S
C1107      C1108   1.402       .  A
C1107      C1112   1.401       .  A
C1108      C1109   1.399       .  A
C1108      H1117   1.083       .  S
C1109      C1110   1.401       .  A
C1109      H1118   1.083       .  S
C1110      C1113   1.441       .  S
C1110      C1111   1.402       .  A
C1111      C1112   1.400       .  A
C1111      H1119   1.083       .  S
C1112      H1120   1.083       .  S
C1113      C1114   1.206       .  T
C1115      C1116   1.206       .  T
C1121      C1129   1.437       .  S
C1121      C1122   1.401       .  A
C1121      C1126   1.401       .  A
C1122      C1123   1.397       .  A
C1122      H1131   1.084       .  S
C1123      C1124   1.401       .  A
C1123      H1132   1.084       .  S
C1124      C1127   1.437       .  S
C1124      C1125   1.401       .  A
C1125      C1126   1.399       .  A
C1125      H1133   1.083       .  S
C1126      H1134   1.083       .  S
C1127      C1128   1.204       .  T
C1129      C1130   1.204       .  T
C1135      C1143   1.440       .  S
C1135      C1136   1.401       .  A
C1135      C1140   1.402       .  A
C1136      C1137   1.399       .  A
C1136      H1145   1.083       .  S
C1137      C1138   1.402   1_545  A
C1137      H1146   1.083       .  S
C1138      C1141   1.440       .  S
C1138      C1139   1.401       .  A
C1139      C1140   1.400   1_565  A
C1139      H1147   1.083       .  S
C1140      H1148   1.083       .  S
C1141      C1142   1.206       .  T
C1143      C1144   1.206       .  T
C1149      C1157   1.439       .  S
C1149      C1150   1.401       .  A
C1149      C1154   1.402       .  A
C1150      C1151   1.398       .  A
C1150      H1159   1.083       .  S
C1151      C1152   1.401       .  A
C1151      H1160   1.084       .  S
C1152      C1155   1.439       .  S
C1152      C1153   1.401       .  A
C1153      C1154   1.399       .  A
C1153      H1161   1.083       .  S
C1154      H1162   1.083       .  S
C1155      C1156   1.205       .  T
C1157      C1158   1.205       .  T
C1163      C1171   1.438       .  S
C1163      C1164   1.402       .  A
C1163      C1168   1.400       .  A
C1164      C1165   1.398       .  A
C1164      H1173   1.084       .  S
C1165      C1166   1.400       .  A
C1165      H1174   1.083       .  S
C1166      C1169   1.438       .  S
C1166      C1167   1.402       .  A
C1167      C1168   1.398       .  A
C1167      H1175   1.084       .  S
C1168      H1176   1.083       .  S
C1169      C1170   1.205       .  T
C1171      C1172   1.205       .  T
C1177      C1185   1.441       .  S
C1177      C1178   1.403       .  A
C1177      C1182   1.400       .  A
C1178      C1179   1.399       .  A
C1178      H1187   1.084       .  S
C1179      C1180   1.401       .  A
C1179      H1188   1.083       .  S
C1180      C1183   1.441       .  S
C1180      C1181   1.402       .  A
C1181      C1182   1.399       .  A
C1181      H1189   1.084       .  S
C1182      H1190   1.083       .  S
C1183      C1184   1.206       .  T
C1185      C1186   1.206       .  T
C1191      C1199   1.439       .  S
C1191      C1192   1.401       .  A
C1191      C1196   1.401       .  A
C1192      C1193   1.399       .  A
C1192      H1201   1.083       .  S
C1193      C1194   1.401       .  A
C1193      H1202   1.084       .  S
C1194      C1197   1.440       .  S
C1194      C1195   1.401       .  A
C1195      C1196   1.399       .  A
C1195      H1203   1.083       .  S
C1196      H1204   1.083       .  S
C1197      C1198   1.206       .  T
C1199      C1200   1.206       .  T
C1205      C1213   1.439       .  S
C1205      C1206   1.401       .  A
C1205      C1210   1.401       .  A
C1206      C1207   1.398       .  A
C1206      H1215   1.083       .  S
C1207      C1208   1.401       .  A
C1207      H1216   1.083       .  S
C1208      C1211   1.439       .  S
C1208      C1209   1.402       .  A
C1209      C1210   1.399       .  A
C1209      H1217   1.083       .  S
C1210      H1218   1.083       .  S
C1211      C1212   1.205       .  T
C1213      C1214   1.206       .  T
C1219      C1227   1.436       .  S
C1219      C1220   1.399       .  A
C1219      C1224   1.402       .  A
C1220      C1221   1.397       .  A
C1220      H1229   1.083       .  S
C1221      C1222   1.402       .  A
C1221      H1230   1.084       .  S
C1222      C1225   1.436       .  S
C1222      C1223   1.400       .  A
C1223      C1224   1.398       .  A
C1223      H1231   1.083       .  S
C1224      H1232   1.084       .  S
C1225      C1226   1.204       .  T
C1227      C1228   1.204       .  T
C1233      C1241   1.438       .  S
C1233      C1234   1.402       .  A
C1233      C1238   1.400       .  A
C1234      C1235   1.398       .  A
C1234      H1243   1.084       .  S
C1235      C1236   1.400       .  A
C1235      H1244   1.083       .  S
C1236      C1239   1.438       .  S
C1236      C1237   1.402       .  A
C1237      C1238   1.398       .  A
C1237      H1245   1.084       .  S
C1238      H1246   1.083       .  S
C1239      C1240   1.205       .  T
C1241      C1242   1.204       .  T
C1247      C1255   1.440       .  S
C1247      C1248   1.401       .  A
C1247      C1252   1.402       .  A
C1248      C1249   1.399       .  A
C1248      H1257   1.083       .  S
C1249      C1250   1.402       .  A
C1249      H1258   1.083       .  S
C1250      C1253   1.440       .  S
C1250      C1251   1.401       .  A
C1251      C1252   1.399       .  A
C1251      H1259   1.083       .  S
C1252      H1260   1.083       .  S
C1253      C1254   1.206       .  T
C1255      C1256   1.206       .  T
C1261      C1269   1.437       .  S
C1261      C1262   1.401       .  A
C1261      C1266   1.401       .  A
C1262      C1263   1.397       .  A
C1262      H1271   1.084       .  S
C1263      C1264   1.400       .  A
C1263      H1272   1.084       .  S
C1264      C1267   1.437       .  S
C1264      C1265   1.401       .  A
C1265      C1266   1.399       .  A
C1265      H1273   1.083       .  S
C1266      H1274   1.083       .  S
C1267      C1268   1.204       .  T
C1269      C1270   1.204       .  T
C1275      C1283   1.440       .  S
C1275      C1276   1.402       .  A
C1275      C1280   1.401       .  A
C1276      C1277   1.399       .  A
C1276      H1285   1.083       .  S
C1277      C1278   1.401       .  A
C1277      H1286   1.084   1_545  S
C1278      C1281   1.440   1_545  S
C1278      C1279   1.402       .  A
C1279      C1280   1.400       .  A
C1279      H1287   1.083       .  S
C1280      H1288   1.083       .  S
C1281      C1282   1.206       .  T
C1283      C1284   1.206       .  T
C1289      C1297   1.439       .  S
C1289      C1290   1.401       .  A
C1289      C1294   1.401       .  A
C1290      C1291   1.399       .  A
C1290      H1299   1.083       .  S
C1291      C1292   1.401       .  A
C1291      H1300   1.083       .  S
C1292      C1295   1.439   1_545  S
C1292      C1293   1.401       .  A
C1293      C1294   1.399       .  A
C1293      H1301   1.083       .  S
C1294      H1302   1.083       .  S
C1295      C1296   1.206       .  T
C1297      C1298   1.206       .  T
C1303      C1311   1.437       .  S
C1303      C1304   1.400       .  A
C1303      C1308   1.401       .  A
C1304      C1305   1.399       .  A
C1304      H1313   1.083       .  S
C1305      C1306   1.402       .  A
C1305      H1314   1.083   1_545  S
C1306      C1309   1.437       .  S
C1306      C1307   1.400       .  A
C1307      C1308   1.397       .  A
C1307      H1315   1.083       .  S
C1308      H1316   1.084       .  S
C1309      C1310   1.204       .  T
C1311      C1312   1.204       .  T
C1317      C1325   1.440       .  S
C1317      C1318   1.402       .  A
C1317      C1322   1.400       .  A
C1318      C1319   1.399       .  A
C1318      H1327   1.084       .  S
C1319      C1320   1.400       .  A
C1319      H1328   1.083       .  S
C1320      C1323   1.440       .  S
C1320      C1321   1.402       .  A
C1321      C1322   1.399       .  A
C1321      H1329   1.084       .  S
C1322      H1330   1.083       .  S
C1323      C1324   1.206       .  T
C1325      C1326   1.206       .  T
C1331      C1339   1.439       .  S
C1331      C1332   1.400       .  A
C1331      C1336   1.402       .  A
C1332      C1333   1.399       .  A
C1332      H1341   1.083       .  S
C1333      C1334   1.402       .  A
C1333      H1342   1.083       .  S
C1334      C1337   1.439       .  S
C1334      C1335   1.400       .  A
C1335      C1336   1.398       .  A
C1335      H1343   1.083       .  S
C1336      H1344   1.084       .  S
C1337      C1338   1.205       .  T
C1339      C1340   1.205       .  T
