geometry optimzed in LAMMPS
_audit_creation_date              2020-12-01 
_audit_creation_method            'lammps2cif' 
_symmetry_space_group_name_H-M    'P1' 
_symmetry_Int_Tables_number       1 
_symmetry_cell_setting            triclinic 
loop_ 
_symmetry_equiv_pos_as_xyz 
  x,y,z 
_cell_length_a                    48.87414276 
_cell_length_b                    26.754746340198736 
_cell_length_c                    29.518919623270662 
_cell_angle_alpha                 90.09136130657676 
_cell_angle_beta                  92.1399951640144 
_cell_angle_gamma                 89.88308623160214 
loop_ 
_atom_site_label 
_atom_site_type_symbol 
_atom_site_fract_x 
_atom_site_fract_y 
_atom_site_fract_z 
_atom_site_charge 
O1          O  0.86053031  0.54479006  0.63914048    -0.83900
O2          O  0.81407749  0.59820063  0.63003939    -0.81000
C3          C  0.79079937  0.61552387  0.63729587     0.99500
O4          O  0.78174797  0.61561028  0.67717740    -0.81000
O5          O  0.77718283  0.51846648  0.70969823    -0.83600
C6          C  0.78356206  0.47655872  0.72625523     1.04100
O7          O  0.80784973  0.46914953  0.74128352    -0.76400
O8          O  0.83863538  0.48048850  0.66572809    -0.76600
C9          C  0.84978860  0.50190979  0.63325475     1.04000
O10         O  0.87705597  0.60787647  0.71593373    -0.83900
O11         O  0.83015899  0.66683501  0.70030415    -0.81000
C12         C  0.81890855  0.67577509  0.73755254     0.99600
O13         O  0.81102101  0.64016990  0.76136417    -0.81000
O14         O  0.80389397  0.54716893  0.79568127    -0.83600
C15         C  0.82696335  0.53609765  0.81463613     1.04000
O16         O  0.84743417  0.52737817  0.79114613    -0.76400
O17         O  0.88181064  0.52681778  0.71985286    -0.76600
C18         C  0.89203131  0.57019305  0.72349860     1.04000
Cr19       Cr  0.84444372  0.60173944  0.67453961     1.93700
Cr20       Cr  0.79571337  0.57904482  0.73416068     1.93200
Cr21       Cr  0.84291337  0.50492420  0.72821590     1.39100
O22         O  0.82757153  0.56219838  0.71231874    -1.21700
O23         O  0.65253256  0.93175514  0.34757236    -0.83900
O24         O  0.68159241  0.94139666  0.27007633    -0.81000
C25         C  0.70568664  0.93433261  0.28575359     0.99500
O26         O  0.71242474  0.89139280  0.29993045    -0.81000
O27         O  0.70707649  0.79368088  0.33261627    -0.83600
C28         C  0.69907568  0.79410722  0.37311577     1.04100
O29         O  0.67618938  0.81225613  0.38207809    -0.76400
O30         O  0.63031718  0.86849599  0.37535126    -0.76600
C31         C  0.64119912  0.91140304  0.38042469     1.04000
O32         O  0.60801211  0.88755555  0.29622677    -0.83900
O33         O  0.64054937  0.88457702  0.22244741    -0.81000
C34         C  0.66016667  0.87377136  0.19763747     0.99600
O35         O  0.68349929  0.86229767  0.21539520    -0.81000
O36         O  0.67641933  0.76920063  0.25074094    -0.83600
C37         C  0.66838038  0.73452147  0.27565561     1.04000
O38         O  0.65744488  0.74492135  0.31286044    -0.76400
O39         O  0.61109238  0.80640700  0.29931900    -0.76600
C40         C  0.59677849  0.84516009  0.29256077     1.04000
Cr41       Cr  0.64672237  0.90711577  0.28521416     1.93700
Cr42       Cr  0.69265651  0.83076575  0.27658717     1.93200
Cr43       Cr  0.64475777  0.81067815  0.33910254     1.39100
O44         O  0.66151394  0.84912217  0.30027276    -1.21700
O45         O  0.62866709  0.04518083  0.87684068    -0.83900
O46         O  0.67592802  0.09823866  0.88420437    -0.81000
C47         C  0.69870165  0.11643314  0.87479142     0.99500
O48         O  0.70618737  0.11751070  0.83410291    -0.81000
O49         O  0.71054204  0.01961669  0.80270440    -0.83600
C50         C  0.70364494  0.97676661  0.78864845     1.04100
O51         O  0.67955714  0.96956248  0.77267747    -0.76400
O52         O  0.64915272  0.98053571  0.84769802    -0.76600
C53         C  0.63835202  0.00116609  0.88093989     1.04000
O54         O  0.61092119  0.10956521  0.80094082    -0.83900
O55         O  0.65809728  0.16725703  0.81495476    -0.81000
C56         C  0.66856677  0.17707068  0.77723322     0.99600
O57         O  0.67600023  0.14187404  0.75216001    -0.81000
O58         O  0.68335353  0.04773034  0.71778855    -0.83600
C59         C  0.66031223  0.03691592  0.69897038     1.04000
O60         O  0.63985617  0.02880358  0.72265996    -0.76400
O61         O  0.60588649  0.02861509  0.79536599    -0.76600
C62         C  0.59582561  0.07223274  0.79283182     1.04000
Cr63       Cr  0.64433283  0.10228560  0.84104922     1.93700
Cr64       Cr  0.69174767  0.08019963  0.77852340     1.93200
Cr65       Cr  0.64465431  0.00609075  0.78572243     1.39100
O66         O  0.66032900  0.06309308  0.80176674    -1.21700
O67         O  0.84106034  0.43199006  0.16357939    -0.83900
O68         O  0.81074730  0.44385073  0.24019040    -0.81000
C69         C  0.78645716  0.43647487  0.22545255     0.99500
O70         O  0.77995966  0.39428213  0.20949551    -0.81000
O71         O  0.78442758  0.29768544  0.17569494    -0.83600
C72         C  0.79313403  0.29868529  0.13559115     1.04100
O73         O  0.81672379  0.31474440  0.12868497    -0.76400
O74         O  0.86334857  0.36752561  0.13758488    -0.76600
C75         C  0.85275875  0.41053252  0.13150879     1.04000
O76         O  0.88441181  0.38598348  0.21690883    -0.83900
O77         O  0.85061854  0.38590011  0.28924478    -0.81000
C78         C  0.83031766  0.37695214  0.31301854     0.99600
O79         O  0.80736831  0.36441660  0.29448841    -0.81000
O80         O  0.81360333  0.27045810  0.25926570    -0.83600
C81         C  0.82133283  0.23560259  0.23414777     1.04000
O82         O  0.83295284  0.24564798  0.19756679    -0.76400
O83         O  0.88013824  0.30469038  0.21451720    -0.76600
C84         C  0.89496056  0.34285585  0.22060940     1.04000
Cr85       Cr  0.84563912  0.40779036  0.22626053     1.93700
Cr86       Cr  0.79866270  0.33308116  0.23302230     1.93200
Cr87       Cr  0.84729713  0.31076281  0.17291846     1.39100
O88         O  0.83040992  0.35017095  0.21090448    -1.21700
O89         O  0.12931231  0.55480216  0.86427670    -0.83900
O90         O  0.17549999  0.61040557  0.87252009    -0.81000
C91         C  0.19793044  0.63100946  0.86491708     0.99500
O92         O  0.20634020  0.63223162  0.82463316    -0.81000
O93         O  0.21277296  0.53433745  0.79250107    -0.83600
C94         C  0.20676137  0.49152523  0.77725299     1.04100
O95         O  0.18278167  0.48330298  0.76146371    -0.76400
O96         O  0.15166727  0.49172988  0.83618963    -0.76600
C97         C  0.13978071  0.51147842  0.86883244     1.04000
O98         O  0.11115574  0.61789365  0.78848137    -0.83900
O99         O  0.15725066  0.67853808  0.80356090    -0.81000
C100        C  0.16802502  0.68896657  0.76627357     0.99600
O101        O  0.17621270  0.65447978  0.74113838    -0.81000
O102        O  0.18562945  0.56070104  0.70688264    -0.83600
C103        C  0.16307496  0.54695774  0.68781208     1.04000
O104        O  0.14242501  0.53925578  0.71105326    -0.76400
O105        O  0.10811821  0.53674203  0.78240185    -0.76600
C106        C  0.09709220  0.57948455  0.77929354     1.04000
Cr107      Cr  0.14434478  0.61280621  0.82903332     1.93700
Cr108      Cr  0.19298258  0.59394987  0.76805071     1.93200
Cr109      Cr  0.14721985  0.51699149  0.77404051     1.39100
O110        O  0.16157673  0.57488537  0.79030382    -1.21700
O111        O  0.33940505  0.93845961  0.15853501    -0.83900
O112        O  0.31059895  0.94895522  0.23561827    -0.81000
C113        C  0.28649659  0.94123554  0.22013566     0.99500
O114        O  0.27985210  0.89820954  0.20642441    -0.81000
O115        O  0.28433633  0.80136417  0.17388271    -0.83600
C116        C  0.29144740  0.80399712  0.13287616     1.04100
O117        O  0.31440512  0.82119837  0.12351716    -0.76400
O118        O  0.36092483  0.87476099  0.12969972    -0.76600
C119        C  0.35022909  0.91801110  0.12521685     1.04000
O120        O  0.38404605  0.89223577  0.20901754    -0.83900
O121        O  0.35180303  0.89170738  0.28321278    -0.81000
C122        C  0.33219554  0.88338822  0.30861456     0.99600
O123        O  0.30890647  0.87065398  0.29130700    -0.81000
O124        O  0.31589930  0.77700543  0.25574802    -0.83600
C125        C  0.32276510  0.74168918  0.23042555     1.04000
O126        O  0.33264123  0.75151665  0.19220601    -0.76400
O127        O  0.37943734  0.81098131  0.20596829    -0.76600
C128        C  0.39423154  0.84888501  0.21315774     1.04000
Cr129      Cr  0.34544690  0.91372143  0.22048819     1.93700
Cr130      Cr  0.29937586  0.83821802  0.23007034     1.93200
Cr131      Cr  0.34602489  0.81717486  0.16605273     1.39100
O132        O  0.33017144  0.85610139  0.20559565    -1.21700
O133        O  0.15538945  0.43330542  0.33836499    -0.83900
O134        O  0.18426156  0.44731071  0.26144531    -0.81000
C135        C  0.20862651  0.43793873  0.27497160     0.99500
O136        O  0.21512446  0.39407438  0.28665530    -0.81000
O137        O  0.20929430  0.29624672  0.31720544    -0.83600
C138        C  0.20188021  0.29741034  0.35810310     1.04100
O139        O  0.17895215  0.31471608  0.36771726    -0.76400
O140        O  0.13281273  0.36932310  0.36351873    -0.76600
C141        C  0.14439397  0.41119545  0.37061065     1.04000
O142        O  0.11012190  0.39142887  0.28537961    -0.83900
O143        O  0.14254853  0.39363505  0.21130561    -0.81000
C144        C  0.16192228  0.38347018  0.18580117     0.99600
O145        O  0.18516546  0.36989803  0.20252028    -0.81000
O146        O  0.17744825  0.27558869  0.23460314    -0.83600
C147        C  0.16992901  0.23994625  0.25876798     1.04000
O148        O  0.16009635  0.24894312  0.29708380    -0.76400
O149        O  0.11395106  0.31005473  0.28542039    -0.76600
C150        C  0.09929262  0.34861320  0.28066508     1.04000
Cr151      Cr  0.14907570  0.41228270  0.27504976     1.93700
Cr152      Cr  0.19456443  0.33538093  0.26220040     1.93200
Cr153      Cr  0.14741640  0.31347717  0.32522999     1.39100
O154        O  0.16383515  0.35348927  0.28734462    -1.21700
O155        O  0.36031165  0.05653710  0.63486295    -0.83900
O156        O  0.31465676  0.11211486  0.62572480    -0.81000
C157        C  0.29084586  0.12783821  0.63155741     0.99500
O158        O  0.28143610  0.12846741  0.67122293    -0.81000
O159        O  0.27627910  0.03173685  0.70379459    -0.83600
C160        C  0.28263945  0.98883074  0.71812932     1.04100
O161        O  0.30639417  0.98134640  0.73520416    -0.76400
O162        O  0.33773257  0.99224067  0.66010679    -0.76600
C163        C  0.34966767  0.01363746  0.62835751     1.04000
O164        O  0.37746253  0.11790762  0.71296228    -0.83900
O165        O  0.33128760  0.17895286  0.69671088    -0.81000
C166        C  0.31927277  0.18866924  0.73305281     0.99600
O167        O  0.30986655  0.15370771  0.75609391    -0.81000
O168        O  0.30276936  0.06072359  0.79073168    -0.83600
C169        C  0.32578902  0.04923064  0.80978959     1.04000
O170        O  0.34592604  0.03843074  0.78612403    -0.76400
O171        O  0.38083259  0.03671701  0.71528416    -0.76600
C172        C  0.39192109  0.07929297  0.71945446     1.04000
Cr173      Cr  0.34477970  0.11370042  0.67080690     1.93700
Cr174      Cr  0.29493999  0.09215417  0.72873732     1.93200
Cr175      Cr  0.34165575  0.01640917  0.72304835     1.39100
O176        O  0.32698423  0.07448894  0.70759611    -1.21700
C177        C  0.23711994  0.19479911  0.55556774     0.14100
C178        C  0.25030677  0.19559749  0.51378548     0.01100
C179        C  0.27567358  0.17155745  0.51090752     0.16000
C180        C  0.28766048  0.14734527  0.54832116     0.25500
C181        C  0.27533159  0.14815927  0.59096347    -0.40900
C182        C  0.24965974  0.17183568  0.59394166     0.32500
C183        C  0.23850735  0.22244123  0.47327720     0.01100
F184        F  0.28969309  0.17321134  0.47206351    -0.13200
F185        F  0.23687881  0.17365395  0.63395918    -0.13700
C186        C  0.23003744  0.27257122  0.47656279     0.16000
C187        C  0.21962128  0.29798077  0.43826037     0.25500
C188        C  0.21828618  0.27446696  0.39554275    -0.40800
C189        C  0.22760821  0.22505917  0.39175722     0.32400
C190        C  0.23711222  0.19896508  0.43035109     0.14100
F191        F  0.23195640  0.29719180  0.51680390    -0.13200
F192        F  0.22567700  0.20085147  0.35129342    -0.13700
F193        F  0.21030595  0.34551114  0.44299279    -0.16000
F194        F  0.24397599  0.15003129  0.42599699    -0.14500
F195        F  0.21211271  0.21627618  0.55931352    -0.14500
F196        F  0.31202919  0.12434510  0.54249715    -0.16000
C197        C  0.24057149  0.56741501  0.27507681     0.14100
C198        C  0.26827370  0.55685012  0.26780034     0.01100
C199        C  0.27660897  0.50662172  0.26502574     0.16000
C200        C  0.25748954  0.46775186  0.26878212     0.25500
C201        C  0.22955970  0.47844013  0.27487093    -0.40900
C202        C  0.22147098  0.52881593  0.27847931     0.32500
C203        C  0.28781297  0.59884923  0.26165512     0.01100
F204        F  0.30326453  0.49521828  0.25860050    -0.13200
F205        F  0.19494380  0.54092327  0.28530073    -0.13700
C206        C  0.29127714  0.63547798  0.29548678     0.16000
C207        C  0.30502325  0.68009542  0.28673090     0.25500
C208        C  0.31551677  0.68947801  0.24356432    -0.40800
C209        C  0.31433632  0.65056478  0.21118610     0.32400
C210        C  0.30056320  0.60576631  0.22016855     0.14100
F211        F  0.28012312  0.62902844  0.33652106    -0.13200
F212        F  0.32468329  0.65706024  0.16957151    -0.13700
F213        F  0.30659742  0.71526809  0.31995055    -0.16000
F214        F  0.29789666  0.57074002  0.18698456    -0.14500
F215        F  0.23177748  0.61549382  0.27750219    -0.14500
F216        F  0.26618020  0.41977556  0.26477112    -0.16000
C217        C  0.19156968  0.10482701  0.26914327     0.14100
C218        C  0.20505187  0.09813359  0.22842554     0.01100
C219        C  0.20184196  0.13403428  0.19410664     0.16000
C220        C  0.18764335  0.17850129  0.20212894     0.25500
C221        C  0.17660979  0.18788811  0.24494643    -0.40900
C222        C  0.17725896  0.14909249  0.27728066     0.32500
C223        C  0.22573821  0.05805738  0.22482902     0.01100
F224        F  0.21444331  0.12792187  0.15423528    -0.13200
F225        F  0.16615827  0.15542842  0.31837738    -0.13700
C226        C  0.22151101  0.01706311  0.19573683     0.16000
C227        C  0.24132292  0.97917762  0.19370399     0.25500
C228        C  0.26583811  0.98208914  0.22045198    -0.40800
C229        C  0.27017589  0.02419043  0.24861164     0.32400
C230        C  0.25028434  0.06155263  0.25081688     0.14100
F231        F  0.19806196  0.01344079  0.16982963    -0.13200
F232        F  0.29340666  0.02890582  0.27495271    -0.13700
F233        F  0.23656923  0.93993099  0.16529092    -0.16000
F234        F  0.25502595  0.10157489  0.27836021    -0.14500
F235        F  0.19389616  0.06979629  0.30230046    -0.14500
F236        F  0.18648632  0.21374670  0.16905173    -0.16000
C237        C  0.36502141  0.92649662  0.42073430     0.14100
C238        C  0.34327110  0.92272337  0.45011715     0.01100
C239        C  0.31850713  0.90121305  0.43415637     0.16000
C240        C  0.31506259  0.88635923  0.38863893     0.25500
C241        C  0.33642059  0.89267172  0.35829258    -0.40900
C242        C  0.36177509  0.91157086  0.37552953     0.32500
C243        C  0.34597894  0.94492850  0.49613953     0.01100
F244        F  0.29720824  0.89682597  0.46210582    -0.13200
F245        F  0.38340880  0.91739779  0.34847199    -0.13700
C246        C  0.35107394  0.99636601  0.50100442     0.16000
C247        C  0.35366582  0.01813651  0.54400011     0.25500
C248        C  0.35052914  0.98913674  0.58322848    -0.40800
C249        C  0.34592689  0.93729211  0.57830354     0.32400
C250        C  0.34380101  0.91541503  0.53511952     0.14100
F251        F  0.35276939  0.02592098  0.46385755    -0.13200
F252        F  0.34361831  0.90763230  0.61524687    -0.13700
F253        F  0.35831074  0.06804103  0.54699226    -0.16000
F254        F  0.33983895  0.86534845  0.53134724    -0.14500
F255        F  0.38939386  0.94589082  0.43568805    -0.14500
F256        F  0.29055174  0.86727060  0.37414733    -0.16000
C257        C  0.35998449  0.02680503  0.92505921     0.14100
C258        C  0.33751824  0.01663832  0.95154760     0.01100
C259        C  0.31089423  0.02465856  0.93335652     0.16000
C260        C  0.30677419  0.03851082  0.88775638     0.25500
C261        C  0.32934636  0.04453794  0.85987925    -0.40900
C262        C  0.35601708  0.04107644  0.87986313     0.32500
C263        C  0.34201575  0.99268395  0.99625732     0.01100
F264        F  0.28889742  0.01618898  0.95902122    -0.13200
F265        F  0.37846277  0.04981495  0.85529698    -0.13700
C266        C  0.33792057  0.01918756  0.03637279     0.16000
C267        C  0.34177837  0.99557517  0.07840973     0.25500
C268        C  0.34960700  0.94466139  0.08100993    -0.40800
C269        C  0.35433672  0.91871654  0.04047248     0.32400
C270        C  0.35061768  0.94261791  0.99858070     0.14100
F271        F  0.33018866  0.06794885  0.03479569    -0.13200
F272        F  0.36152506  0.86968261  0.04106371    -0.13700
F273        F  0.33756267  0.02263986  0.11649418    -0.16000
F274        F  0.35466379  0.91642106  0.95995709    -0.14500
F275        F  0.38587525  0.02099136  0.94261111    -0.14500
F276        F  0.28076704  0.04309602  0.87045261    -0.16000
C277        C  0.25190720  0.70299595  0.93622837     0.14100
C278        C  0.23837379  0.70933209  0.97717753     0.01100
C279        C  0.21189252  0.69021863  0.98062702     0.16000
C280        C  0.19926922  0.66426675  0.94463044     0.25500
C281        C  0.21271690  0.65686857  0.90348979    -0.40900
C282        C  0.23918257  0.67706824  0.89962492     0.32500
C283        C  0.25161599  0.73456378  0.01720490     0.01100
F284        F  0.19790858  0.69749102  0.01900717    -0.13200
F285        F  0.25283015  0.67156706  0.86070570    -0.13700
C286        C  0.25976197  0.78485581  0.01523945     0.16000
C287        C  0.27139709  0.80847477  0.05378185     0.25500
C288        C  0.27458048  0.78251708  0.09514713    -0.40800
C289        C  0.26599361  0.73257286  0.09726960     0.32400
C290        C  0.25482439  0.70872847  0.05860459     0.14100
F291        F  0.25626909  0.81116863  0.97614808    -0.13200
F292        F  0.27008101  0.70585258  0.13600198    -0.13700
F293        F  0.27983172  0.85665524  0.05068987    -0.16000
F294        F  0.24789246  0.65972131  0.06115744    -0.14500
F295        F  0.27761307  0.72109758  0.93197460    -0.14500
F296        F  0.17341120  0.64745058  0.95018045    -0.16000
C297        C  0.15505987  0.41578327  0.96133341     0.14100
C298        C  0.14274165  0.43784171  0.99855685     0.01100
C299        C  0.12720581  0.48167052  0.99215396     0.16000
C300        C  0.12518995  0.50461963  0.94960682     0.25500
C301        C  0.13873079  0.48406810  0.91253568    -0.40900
C302        C  0.15309795  0.43850044  0.91875230     0.32500
C303        C  0.14791440  0.41769189  0.04472944     0.01100
F304        F  0.11511655  0.50373672  0.02773858    -0.13200
F305        F  0.16621778  0.41655236  0.88415051    -0.13700
C306        C  0.17473382  0.41647685  0.06365680     0.16000
C307        C  0.17954551  0.40302023  0.10902171     0.25500
C308        C  0.15753998  0.39080898  0.13633498    -0.40800
C309        C  0.13080754  0.38966526  0.11655369     0.32400
C310        C  0.12608077  0.40299303  0.07116724     0.14100
F311        F  0.19615360  0.43105325  0.03885199    -0.13200
F312        F  0.10911775  0.37632303  0.14130507    -0.13700
F313        F  0.20554669  0.40493332  0.12679696    -0.16000
F314        F  0.10010261  0.40236111  0.05316680    -0.14500
F315        F  0.16955857  0.37267858  0.96650735    -0.14500
F316        F  0.11072327  0.54782432  0.94529117    -0.16000
C317        C  0.18085812  0.49525273  0.57324204     0.14100
C318        C  0.15523940  0.49654847  0.55020131     0.01100
C319        C  0.13281224  0.51823332  0.57100231     0.16000
C320        C  0.13572149  0.53717817  0.61503850     0.25500
C321        C  0.16119725  0.53464747  0.63897179    -0.40900
C322        C  0.18387449  0.51422853  0.61734184     0.32500
C323        C  0.15181867  0.47502732  0.50442393     0.01100
F324        F  0.10800580  0.52038536  0.54877802    -0.13200
F325        F  0.20853300  0.50985084  0.63974841    -0.13700
C326        C  0.14077800  0.42705628  0.49827094     0.16000
C327        C  0.13775434  0.40651175  0.45475189     0.25500
C328        C  0.14559111  0.43397439  0.41656386    -0.40800
C329        C  0.15650393  0.48242212  0.42324817     0.32400
C330        C  0.15960412  0.50255394  0.46679813     0.14100
F331        F  0.13342195  0.39977360  0.53459512    -0.13200
F332        F  0.16451679  0.51041013  0.38779375    -0.13700
F333        F  0.12787773  0.35928387  0.45033610    -0.16000
F334        F  0.17031047  0.54904568  0.47235965    -0.14500
F335        F  0.20269313  0.47400232  0.55352675    -0.14500
F336        F  0.11350235  0.55734437  0.63453396    -0.16000
C337        C  0.25156410  0.85950133  0.72883306     0.14100
C338        C  0.22343337  0.86989055  0.72550508     0.01100
C339        C  0.21461472  0.91888210  0.71640248     0.16000
C340        C  0.23377003  0.95751603  0.71232455     0.25500
C341        C  0.26213318  0.94762857  0.71754390    -0.40900
C342        C  0.27073001  0.89780063  0.72484708     0.32500
C343        C  0.20372379  0.82967834  0.73491407     0.01100
F344        F  0.18744757  0.92950476  0.71290789    -0.13200
F345        F  0.29774633  0.88596770  0.72874102    -0.13700
C346        C  0.19866350  0.81733258  0.78000838     0.16000
C347        C  0.18440745  0.77369301  0.79009916     0.25500
C348        C  0.17529360  0.74118453  0.75511287    -0.40800
C349        C  0.17881058  0.75546670  0.70972791     0.32400
C350        C  0.19288341  0.79949368  0.69974169     0.14100
F351        F  0.20928299  0.84581104  0.81445934    -0.13200
F352        F  0.16997257  0.72536743  0.67512615    -0.13700
F353        F  0.18206771  0.76082535  0.83426941    -0.16000
F354        F  0.19747950  0.81098014  0.65589934    -0.14500
F355        F  0.26046752  0.81214786  0.73709558    -0.14500
F356        F  0.22444912  0.00477712  0.70514085    -0.16000
C357        C  0.27451082  0.42021789  0.78828757     0.14100
C358        C  0.26757215  0.37523481  0.76630964     0.01100
C359        C  0.24082608  0.36824263  0.74884887     0.16000
C360        C  0.22113561  0.40557537  0.75305379     0.25500
C361        C  0.22779376  0.45127904  0.77483991    -0.40900
C362        C  0.25482084  0.45811212  0.79245374     0.32500
C363        C  0.28734161  0.33371368  0.76292552     0.01100
F364        F  0.23370788  0.32469444  0.72786231    -0.13200
F365        F  0.26226237  0.50126367  0.81374754    -0.13700
C366        C  0.28816798  0.29658534  0.79631123     0.16000
C367        C  0.30099939  0.25082258  0.78838878     0.25500
C368        C  0.31303276  0.24110140  0.74642605    -0.40800
C369        C  0.31426925  0.28035783  0.71467416     0.32400
C370        C  0.30135497  0.32618008  0.72284049     0.14100
F371        F  0.27455159  0.30318400  0.83515736    -0.13200
F372        F  0.32586521  0.27321305  0.67408630    -0.13700
F373        F  0.29985222  0.21487513  0.82069003    -0.16000
F374        F  0.30073271  0.36186211  0.69016539    -0.14500
F375        F  0.30029722  0.42732657  0.80574006    -0.14500
F376        F  0.19555835  0.39665900  0.73535614    -0.16000
C377        C  0.97063581  0.37069700  0.21611567     0.14100
C378        C  0.98214616  0.33530614  0.24622696     0.01100
C379        C  0.96497913  0.30061971  0.26684202     0.16000
C380        C  0.93653075  0.30200999  0.25796405     0.25500
C381        C  0.92495877  0.33841456  0.22864851    -0.40900
C382        C  0.94236295  0.37232224  0.20744215     0.32500
C383        C  0.01197019  0.33652353  0.25709569     0.01100
F384        F  0.97569323  0.26658840  0.29663351    -0.12400
F385        F  0.93199280  0.40679185  0.17771601    -0.13700
C386        C  0.02320798  0.37657776  0.28223246     0.16000
C387        C  0.05154247  0.38041343  0.28982363     0.25500
C388        C  0.06925896  0.34410478  0.27243419    -0.40800
C389        C  0.05790501  0.30349171  0.24780772     0.32400
C390        C  0.02946823  0.29985035  0.24011452     0.14100
F391        F  0.00662134  0.41207953  0.29946202    -0.13200
F392        F  0.07436438  0.26825315  0.22987381    -0.13700
F393        F  0.06158986  0.41923308  0.31499441    -0.16000
F394        F  0.01904459  0.26141132  0.21489293    -0.14500
F395        F  0.98689862  0.40384991  0.19511265    -0.14500
F396        F  0.92024392  0.26930994  0.27943106    -0.16000
C397        C  0.46278720  0.12864812  0.75634603     0.14100
C398        C  0.47937902  0.08661238  0.74881438     0.01100
C399        C  0.46721535  0.04326374  0.73038681     0.16000
C400        C  0.43900973  0.04123275  0.72081253     0.25500
C401        C  0.42206018  0.08273796  0.72926984    -0.40900
C402        C  0.43438365  0.12679360  0.74665326     0.32500
C403        C  0.50911373  0.08626786  0.76198082     0.01100
F404        F  0.48280940  0.00261616  0.72142221    -0.13200
F405        F  0.41891221  0.16761225  0.75550020    -0.13700
C406        C  0.51919739  0.05146763  0.79414302     0.16000
C407        C  0.54731070  0.04746066  0.80427130     0.25500
C408        C  0.56603099  0.07862569  0.78292511    -0.40800
C409        C  0.55597578  0.11461291  0.75172946     0.32400
C410        C  0.52772765  0.11819228  0.74111400     0.14100
F411        F  0.50168658  0.02113200  0.81576784    -0.13200
F412        F  0.57358463  0.14467013  0.73002794    -0.13700
F413        F  0.55625253  0.01342657  0.83555877    -0.16000
F414        F  0.51866797  0.15138556  0.70918336    -0.14500
F415        F  0.47395416  0.17094835  0.77443941    -0.14500
F416        F  0.42841704  0.99850106  0.70259169    -0.16000
C417        C  0.77633693  0.24818040  0.01766164     0.14100
C418        C  0.75043742  0.22691684  0.02251695     0.01100
C419        C  0.73744654  0.23259267  0.06404159     0.16000
C420        C  0.75068650  0.25743035  0.10062798     0.25500
C421        C  0.77706932  0.27757116  0.09612738    -0.40900
C422        C  0.78932038  0.27363937  0.05355558     0.32500
C423        C  0.73763761  0.19786243  0.98439095     0.01100
F424        F  0.71193575  0.21397286  0.06920575    -0.13200
F425        F  0.81451728  0.29276534  0.04658030    -0.13700
C426        C  0.72928359  0.14814780  0.99080623     0.16000
C427        C  0.71759983  0.12064737  0.95463491     0.25500
C428        C  0.71486151  0.14183583  0.91114498    -0.40800
C429        C  0.72406830  0.19087874  0.90435884     0.32400
C430        C  0.73492464  0.21890973  0.94075225     0.14100
F431        F  0.73271970  0.12602263  0.03199519    -0.13200
F432        F  0.72106433  0.21274901  0.86299491    -0.13700
F433        F  0.70897147  0.07324150  0.96201991    -0.16000
F434        F  0.74201424  0.26724145  0.93361571    -0.14500
F435        F  0.78976912  0.24247666  0.97851196    -0.14500
F436        F  0.73782217  0.26100851  0.14047105    -0.16000
C437        C  0.52269279  0.88447434  0.27076154     0.14100
C438        C  0.50975540  0.83877127  0.26086876     0.01100
C439        C  0.52532930  0.79452677  0.26280154     0.16000
C440        C  0.55355370  0.79616431  0.27343374     0.25500
C441        C  0.56673856  0.84224447  0.28221238    -0.40900
C442        C  0.55075891  0.88633448  0.28110130     0.32500
C443        C  0.48021175  0.83817711  0.24720897     0.01100
F444        F  0.51334919  0.74984177  0.25312901    -0.13200
F445        F  0.56212285  0.93170573  0.29018488    -0.13700
C446        C  0.47064830  0.86727230  0.21023076     0.16000
C447        C  0.44266637  0.87030842  0.19911876     0.25500
C448        C  0.42374792  0.84337015  0.22403833    -0.40800
C449        C  0.43323084  0.81304831  0.26017665     0.32400
C450        C  0.46128144  0.81080998  0.27197411     0.14100
F451        F  0.48849335  0.89292112  0.18487777    -0.13200
F452        F  0.41521889  0.78762540  0.28536693    -0.13700
F453        F  0.43401492  0.89925866  0.16362617    -0.16000
F454        F  0.46983152  0.78364055  0.30865901    -0.14500
F455        F  0.50801119  0.92764452  0.27067577    -0.14500
F456        F  0.56794483  0.75270827  0.27434815    -0.16000
C457        C  0.74908425  0.55037652  0.26948987     0.14100
C458        C  0.72512782  0.55155362  0.24158924     0.01100
C459        C  0.72153607  0.51490030  0.20763055     0.16000
C460        C  0.74143002  0.47758555  0.20201231     0.25500
C461        C  0.76545460  0.47647796  0.23000296    -0.40900
C462        C  0.76893360  0.51336979  0.26389077     0.32500
C463        C  0.70477740  0.59247706  0.24738456     0.01100
F464        F  0.69860868  0.51488199  0.18021849    -0.13200
F465        F  0.79133230  0.51315308  0.29254264    -0.13700
C466        C  0.69863384  0.62605511  0.21185066     0.16000
C467        C  0.68409055  0.67021148  0.21992488     0.25500
C468        C  0.67560691  0.68200946  0.26388967    -0.40800
C469        C  0.67939904  0.64586418  0.29828645     0.32400
C470        C  0.69383751  0.60163081  0.29005683     0.14100
F471        F  0.70859760  0.61818279  0.17010842    -0.13200
F472        F  0.67126707  0.65498507  0.34100382    -0.13700
F473        F  0.67983643  0.70290568  0.18521636    -0.16000
F474        F  0.69845782  0.56885813  0.32459062    -0.14500
F475        F  0.75356196  0.58585366  0.30187593    -0.14500
F476        F  0.73732681  0.44298145  0.16877782    -0.16000
C477        C  0.79587625  0.12407018  0.29960916     0.14100
C478        C  0.78392894  0.09520490  0.26436222     0.01100
C479        C  0.78809975  0.10905747  0.21924460     0.16000
C480        C  0.80263875  0.15254450  0.20941236     0.25500
C481        C  0.81295673  0.18360923  0.24463436    -0.40900
C482        C  0.81011185  0.16811198  0.28985911     0.32500
C483        C  0.76418781  0.05473266  0.27399769     0.01100
F484        F  0.77664055  0.08187100  0.18461414    -0.13200
F485        F  0.82000829  0.19687442  0.32466051    -0.13700
C486        C  0.73624399  0.06251100  0.26392641     0.16000
C487        C  0.71731520  0.02409318  0.26932436     0.25500
C488        C  0.72588229  0.97629556  0.28463056    -0.40800
C489        C  0.75389995  0.96925047  0.29659840     0.32400
C490        C  0.77283703  0.00822685  0.29140044     0.14100
F491        F  0.72726007  0.10760718  0.24832355    -0.13200
F492        F  0.76316373  0.92443628  0.31233514    -0.13700
F493        F  0.69055821  0.03391979  0.25880598    -0.16000
F494        F  0.79973548  0.00010020  0.30201685    -0.14500
F495        F  0.79214217  0.11146431  0.34347116    -0.14500
F496        F  0.80429134  0.16662725  0.16541837    -0.16000
C497        C  0.67383800  0.89736551  0.07378446     0.14100
C498        C  0.64707003  0.90390158  0.05564252     0.01100
C499        C  0.62480900  0.89371664  0.08273562     0.16000
C500        C  0.62914136  0.88093788  0.12828603     0.25500
C501        C  0.65594593  0.87837820  0.14774898    -0.40900
C502        C  0.67828138  0.88462587  0.11946618     0.32500
C503        C  0.64241314  0.92611644  0.01013636     0.01100
F504        F  0.59878237  0.89767981  0.06531928    -0.13200
F505        F  0.70442532  0.88144428  0.13644850    -0.13700
C506        C  0.65190102  0.90223131  0.97146636     0.16000
C507        C  0.64953148  0.92563639  0.92917517     0.25500
C508        C  0.63770584  0.97382394  0.92476959    -0.40800
C509        C  0.62730145  0.99672846  0.96357509     0.32400
C510        C  0.62965601  0.97306119  0.00574810     0.14100
F511        F  0.66378664  0.85638897  0.97477468    -0.13200
F512        F  0.61564084  0.04278923  0.96126550    -0.13700
F513        F  0.65955995  0.90138854  0.89288099    -0.16000
F514        F  0.62054274  0.99707924  0.04285482    -0.14500
F515        F  0.69571321  0.90643058  0.04799823    -0.14500
F516        F  0.60697091  0.87243519  0.15357409    -0.16000
C517        C  0.65632803  0.00626986  0.47395217     0.14100
C518        C  0.64607113  0.98185352  0.51160666     0.01100
C519        C  0.63259529  0.93594284  0.50582746     0.16000
C520        C  0.63011668  0.91376183  0.46300523     0.25500
C521        C  0.64106304  0.93729645  0.42500196    -0.40900
C522        C  0.65375552  0.98446643  0.43093574     0.32500
C523        C  0.65047401  0.00267303  0.55751324     0.01100
F524        F  0.62275185  0.91166753  0.54213697    -0.13200
F525        F  0.66430841  0.00916959  0.39546160    -0.13700
C526        C  0.62824275  0.02074787  0.58134588     0.16000
C527        C  0.63174032  0.03439398  0.62687334     0.25500
C528        C  0.65757965  0.02983116  0.64933939    -0.40800
C529        C  0.68014414  0.01409395  0.62457321     0.32400
C530        C  0.67655935  0.00057871  0.57896677     0.14100
F531        F  0.60300110  0.02394910  0.56072375    -0.13200
F532        F  0.70530559  0.00867729  0.64509767    -0.13700
F533        F  0.60971612  0.05117242  0.64920011    -0.16000
F534        F  0.69824242  0.98275026  0.55639345    -0.14500
F535        F  0.66914986  0.05102793  0.47900428    -0.14500
F536        F  0.61770900  0.86850092  0.45927777    -0.16000
C537        C  0.96463049  0.62144206  0.72497239     0.14100
C538        C  0.97941785  0.58289571  0.74712292     0.01100
C539        C  0.96507488  0.54165176  0.76369502     0.16000
C540        C  0.93667335  0.53807821  0.75686064     0.25500
C541        C  0.92184580  0.57606995  0.73380815    -0.40900
C542        C  0.93611055  0.61825806  0.71862674     0.32500
C543        C  0.00980314  0.58463075  0.75210075     0.01100
F544        F  0.97863479  0.50467668  0.78669223    -0.13200
F545        F  0.92267295  0.65547976  0.69580718    -0.13700
C546        C  0.02319957  0.62497296  0.77398632     0.16000
C547        C  0.05172784  0.62448968  0.78129445     0.25500
C548        C  0.06736000  0.58330982  0.76729566    -0.40800
C549        C  0.05394440  0.54391889  0.74382995     0.32400
C550        C  0.02555969  0.54475137  0.73613767     0.14100
F551        F  0.00854829  0.66389496  0.79005887    -0.13200
F552        F  0.06828481  0.50430372  0.72828045    -0.13700
F553        F  0.06381691  0.66327086  0.80393405    -0.16000
F554        F  0.01338828  0.50630320  0.71309809    -0.14500
F555        F  0.97791995  0.66129667  0.70785008    -0.14500
F556        F  0.92368464  0.49737802  0.77304830    -0.16000
C557        C  0.77823573  0.68895279  0.52943847     0.14100
C558        C  0.74983724  0.68566828  0.52259717     0.01100
C559        C  0.73436380  0.65925214  0.55394404     0.16000
C560        C  0.74735272  0.63636799  0.59186788     0.25500
C561        C  0.77591310  0.63972284  0.59861963    -0.40900
C562        C  0.79115137  0.66640592  0.56698064     0.32500
C563        C  0.73667811  0.71279924  0.48403568     0.01100
F564        F  0.70680452  0.65535109  0.54753882    -0.13200
F565        F  0.81866489  0.67202663  0.57307833    -0.13700
C566        C  0.73976698  0.69619654  0.43930583     0.16000
C567        C  0.72891511  0.72412332  0.40269487     0.25500
C568        C  0.71488683  0.76919074  0.41039579    -0.40800
C569        C  0.71240907  0.78610827  0.45532288     0.32400
C570        C  0.72321170  0.75813683  0.49172978     0.14100
F571        F  0.75286877  0.65245768  0.43123429    -0.13200
F572        F  0.69934243  0.82974463  0.46402731    -0.13700
F573        F  0.73090802  0.70581074  0.36001070    -0.16000
F574        F  0.72084488  0.77559733  0.53462665    -0.14500
F575        F  0.79342346  0.71532617  0.50021184    -0.14500
F576        F  0.73222891  0.61004909  0.62117300    -0.16000
C577        C  0.82882893  0.41700825  0.53518016     0.14100
C578        C  0.84438674  0.43598925  0.50017189     0.01100
C579        C  0.86303107  0.47494941  0.50963881     0.16000
C580        C  0.86562658  0.49532705  0.55325960     0.25500
C581        C  0.84944364  0.47732253  0.58818016    -0.40900
C582        C  0.83116811  0.43752910  0.57861740     0.32500
C583        C  0.84035725  0.41650615  0.45345029     0.01100
F584        F  0.87801003  0.49459641  0.47619503    -0.13200
F585        F  0.81464283  0.41950773  0.61074595    -0.13700
C586        C  0.81420928  0.41737468  0.43184137     0.16000
C587        C  0.81058826  0.40168914  0.38684236     0.25500
C588        C  0.83316137  0.38564303  0.36240894    -0.40800
C589        C  0.85918524  0.38329844  0.38460055     0.32400
C590        C  0.86268660  0.39834482  0.42975818     0.14100
F591        F  0.79236090  0.43577964  0.45361543    -0.13200
F592        F  0.88138778  0.36707722  0.36240670    -0.13700
F593        F  0.78528767  0.40518720  0.36646202    -0.16000
F594        F  0.88798177  0.39560999  0.45027798    -0.14500
F595        F  0.81105927  0.37876351  0.52716636    -0.14500
F596        F  0.88366351  0.53320257  0.56096961    -0.16000
C597        C  0.81324319  0.49418273  0.93388915     0.14100
C598        C  0.83927069  0.49991600  0.95499307     0.01100
C599        C  0.86026532  0.52249147  0.93142094     0.16000
C600        C  0.85573284  0.53695556  0.88633100     0.25500
C601        C  0.83002355  0.52914319  0.86419246    -0.40900
C602        C  0.80855795  0.50895065  0.88879328     0.32500
C603        C  0.84514260  0.47841988  0.00018286     0.01100
F604        F  0.88550143  0.52841019  0.95150575    -0.13200
F605        F  0.78366335  0.50023761  0.86837909    -0.13700
C606        C  0.85144424  0.42745532  0.00425539     0.16000
C607        C  0.85565660  0.40587780  0.04700986     0.25500
C608        C  0.85310814  0.43492406  0.08651145    -0.40800
C609        C  0.84801898  0.48666977  0.08206667     0.32400
C610        C  0.84417031  0.50821347  0.03914290     0.14100
F611        F  0.85291588  0.39837387  0.96667262    -0.13200
F612        F  0.84640645  0.51636774  0.11922167    -0.13700
F613        F  0.86098339  0.35613271  0.04959582    -0.16000
F614        F  0.83879853  0.55788590  0.03556883    -0.14500
F615        F  0.79273554  0.47233144  0.95645771    -0.14500
F616        F  0.87675504  0.55727616  0.86387161    -0.16000
C617        C  0.77102711  0.90646699  0.77992020     0.14100
C618        C  0.76214719  0.85663597  0.77871495     0.01100
C619        C  0.73422462  0.84626804  0.78349708     0.16000
C620        C  0.71532192  0.88519945  0.78791948     0.25500
C621        C  0.72401697  0.93541469  0.78806105    -0.40900
C622        C  0.75220165  0.94553321  0.78490048     0.32500
C623        C  0.78163715  0.81520975  0.77097022     0.01100
F624        F  0.72513682  0.79831849  0.78249320    -0.13200
F625        F  0.76148103  0.99331211  0.78478796    -0.13700
C626        C  0.78660906  0.77904635  0.80459961     0.16000
C627        C  0.80154092  0.73589897  0.79511754     0.25500
C628        C  0.81123015  0.72736154  0.75125246    -0.40800
C629        C  0.80816576  0.76572854  0.71874314     0.32400
C630        C  0.79348621  0.80929511  0.72861886     0.14100
F631        F  0.77592753  0.78452596  0.84613257    -0.13200
F632        F  0.81737296  0.75955462  0.67626776    -0.13700
F633        F  0.80510808  0.70110821  0.82829525    -0.16000
F634        F  0.78909227  0.84405319  0.69567430    -0.14500
F635        F  0.79795700  0.91724462  0.77594212    -0.14500
F636        F  0.68847423  0.87366115  0.79195021    -0.16000
C637        C  0.74699615  0.36213077  0.76993833     0.14100
C638        C  0.72221685  0.36287377  0.74436706     0.01100
C639        C  0.71740632  0.40134587  0.71270948     0.16000
C640        C  0.73721833  0.43846957  0.70658044     0.25500
C641        C  0.76242696  0.43716142  0.73158211    -0.40900
C642        C  0.76688520  0.39863375  0.76360331     0.32500
C643        C  0.70266034  0.32102723  0.74901134     0.01100
F644        F  0.69348927  0.40297459  0.68783385    -0.13200
F645        F  0.79039285  0.39646270  0.78955989    -0.13700
C646        C  0.68995855  0.31272961  0.79023661     0.16000
C647        C  0.67640169  0.26758524  0.79805987     0.25500
C648        C  0.67572551  0.22943111  0.76493069    -0.40800
C649        C  0.68657270  0.23985361  0.72222398     0.32400
C650        C  0.69986556  0.28518154  0.71446179     0.14100
F651        F  0.69204803  0.34730529  0.82390171    -0.13200
F652        F  0.68595256  0.20498836  0.68872575    -0.13700
F653        F  0.66591118  0.25994800  0.83942189    -0.16000
F654        F  0.71200707  0.29236418  0.67435567    -0.14500
F655        F  0.75221886  0.32510111  0.80048587    -0.14500
F656        F  0.73184907  0.47516979  0.67579158    -0.16000
loop_ 
_geom_bond_atom_site_label_1 
_geom_bond_atom_site_label_2 
_geom_bond_distance 
_geom_bond_site_symmetry_2 
_ccdc_geom_bond_type 
O1          Cr19   2.021       .  S
O1            C9   1.272       .  A
O2          Cr19   1.947       .  S
O2            C3   1.253       .  A
C3            O4   1.273       .  A
C3          C561   1.480       .  S
O4          Cr20   2.042       .  S
O5          Cr20   1.980       .  S
O5            C6   1.258       .  A
C6            O7   1.267       .  A
C6          C641   1.490       .  S
O7          Cr21   2.015       .  S
O8          Cr21   1.960       .  S
O8            C9   1.260       .  A
C9          C581   1.483       .  S
O10         Cr19   1.979       .  S
O10          C18   1.260       .  A
O11         Cr19   2.032       .  S
O11          C12   1.270       .  A
C12          O13   1.255       .  A
C12         C628   1.489       .  S
O13         Cr20   1.958       .  S
O14         Cr20   2.033       .  S
O14          C15   1.274       .  A
C15          O16   1.260       .  A
C15         C601   1.477       .  S
O16         Cr21   1.956       .  S
O17         Cr21   2.014       .  S
O17          C18   1.267       .  A
C18         C541   1.486       .  S
Cr19         O22   1.766       .  S
Cr20         O22   1.765       .  S
Cr21         O22   1.761       .  S
O23         Cr41   1.965       .  S
O23          C31   1.260       .  A
O24         Cr41   2.002       .  S
O24          C25   1.263       .  A
C25          O26   1.262       .  A
C25         C488   1.498       .  S
O26         Cr42   1.998       .  S
O27         Cr42   2.033       .  S
O27          C28   1.272       .  A
C28          O29   1.256       .  A
C28         C568   1.480       .  S
O29         Cr43   1.956       .  S
O30         Cr43   2.021       .  S
O30          C31   1.272       .  A
C31         C521   1.486       .  S
O32         Cr41   2.002       .  S
O32          C40   1.264       .  A
O33         Cr41   1.960       .  S
O33          C34   1.261       .  A
C34          O35   1.274       .  A
C34         C501   1.485       .  S
O35         Cr42   2.029       .  S
O36         Cr42   1.970       .  S
O36          C37   1.258       .  A
C37          O38   1.269       .  A
C37         C468   1.492       .  S
O38         Cr43   2.027       .  S
O39         Cr43   1.989       .  S
O39          C40   1.262       .  A
C40         C441   1.491       .  S
Cr41         O44   1.761       .  S
Cr42         O44   1.767       .  S
Cr43         O44   1.766       .  S
O45         Cr63   2.027       .  S
O45          C53   1.273       .  A
O46         Cr63   1.968       .  S
O46          C47   1.256       .  A
C47          O48   1.269       .  A
C47         C428   1.474       .  S
O48         Cr64   2.024       .  S
O49         Cr64   1.982       .  S
O49          C50   1.261   1_545  A
C50          O51   1.267       .  A
C50         C621   1.487       .  S
O51         Cr65   2.014   1_565  S
O52         Cr65   1.959   1_565  S
O52          C53   1.258   1_565  A
C53         C508   1.489   1_545  S
O54         Cr63   1.990       .  S
O54          C62   1.260       .  A
O55         Cr63   2.029       .  S
O55          C56   1.271       .  A
C56          O57   1.258       .  A
C56         C648   1.493       .  S
O57         Cr64   1.968       .  S
O58         Cr64   2.020       .  S
O58          C59   1.271       .  A
C59          O60   1.261       .  A
C59         C528   1.478       .  S
O60         Cr65   1.965       .  S
O61         Cr65   2.017       .  S
O61          C62   1.267       .  A
C62         C408   1.484       .  S
Cr63         O66   1.765       .  S
Cr64         O66   1.767       .  S
Cr65         O66   1.764       .  S
O67         Cr85   1.966       .  S
O67          C75   1.261       .  A
O68         Cr85   2.013       .  S
O68          C69   1.265       .  A
C69          O70   1.259       .  A
C69         C461   1.491       .  S
O70         Cr86   1.987       .  S
O71         Cr86   2.038       .  S
O71          C72   1.273       .  A
C72          O73   1.255       .  A
C72         C421   1.491       .  S
O73         Cr87   1.950       .  S
O74         Cr87   2.020       .  S
O74          C75   1.271       .  A
C75         C608   1.482       .  S
O76         Cr85   2.010       .  S
O76          C84   1.266       .  A
O77         Cr85   1.957       .  S
O77          C78   1.260       .  A
C78          O79   1.275       .  A
C78         C588   1.477       .  S
O79         Cr86   2.029       .  S
O80         Cr86   1.974       .  S
O80          C81   1.257       .  A
C81          O82   1.268       .  A
C81         C481   1.487       .  S
O82         Cr87   2.026       .  S
O83         Cr87   1.991       .  S
O83          C84   1.262       .  A
C84         C381   1.481       .  S
Cr85         O88   1.764       .  S
Cr86         O88   1.767       .  S
Cr87         O88   1.764       .  S
O89        Cr107   2.024       .  S
O89          C97   1.271       .  A
O90        Cr107   1.956       .  S
O90          C91   1.256       .  A
C91          O92   1.273       .  A
C91         C281   1.495       .  S
O92        Cr108   2.045       .  S
O93        Cr108   1.986       .  S
O93          C94   1.261       .  A
C94          O95   1.265       .  A
C94         C361   1.491       .  S
O95        Cr109   2.003       .  S
O96        Cr109   1.960       .  S
O96          C97   1.259       .  A
C97         C301   1.488       .  S
O98        Cr107   1.984       .  S
O98         C106   1.261       .  A
O99        Cr107   2.025       .  S
O99         C100   1.269       .  A
C100        O101   1.257       .  A
C100        C348   1.483       .  S
O101       Cr108   1.969       .  S
O102       Cr108   2.032       .  S
O102        C103   1.274       .  A
C103        O104   1.259       .  A
C103        C321   1.478       .  S
O104       Cr109   1.959       .  S
O105       Cr109   2.006       .  S
O105        C106   1.265       .  A
C106        C548   1.486       .  S
Cr107       O110   1.764       .  S
Cr108       O110   1.768       .  S
Cr109       O110   1.760       .  S
O111       Cr129   1.958       .  S
O111        C119   1.258       .  A
O112       Cr129   2.009       .  S
O112        C113   1.265       .  A
C113        O114   1.259       .  A
C113        C228   1.487       .  S
O114       Cr130   1.980       .  S
O115       Cr130   2.042       .  S
O115        C116   1.274       .  A
C116        O117   1.254       .  A
C116        C288   1.477       .  S
O117       Cr131   1.957       .  S
O118       Cr131   2.031       .  S
O118        C119   1.274       .  A
C119        C268   1.487       .  S
O120       Cr129   2.012       .  S
O120        C128   1.266       .  A
O121       Cr129   1.957       .  S
O121        C122   1.259       .  A
C122        O123   1.277       .  A
C122        C241   1.494       .  S
O123       Cr130   2.042       .  S
O124       Cr130   1.965       .  S
O124        C125   1.257       .  A
C125        O126   1.272       .  A
C125        C208   1.497       .  S
O126       Cr131   2.039       .  S
O127       Cr131   1.985       .  S
O127        C128   1.260       .  A
C128        C448   1.473       .  S
Cr129       O132   1.762       .  S
Cr130       O132   1.761       .  S
Cr131       O132   1.763       .  S
O133       Cr151   1.964       .  S
O133        C141   1.259       .  A
O134       Cr151   2.014       .  S
O134        C135   1.266       .  A
C135        O136   1.260       .  A
C135        C201   1.492       .  S
O136       Cr152   1.986       .  S
O137       Cr152   2.041       .  S
O137        C138   1.274       .  A
C138        O139   1.254       .  A
C138        C188   1.475       .  S
O139       Cr153   1.951       .  S
O140       Cr153   2.017       .  S
O140        C141   1.270       .  A
C141        C328   1.485       .  S
O142       Cr151   2.019       .  S
O142        C150   1.268       .  A
O143       Cr151   1.961       .  S
O143        C144   1.261       .  A
C144        O145   1.274       .  A
C144        C308   1.481       .  S
O145       Cr152   2.027       .  S
O146       Cr152   1.968       .  S
O146        C147   1.256       .  A
C147        O148   1.268       .  A
C147        C221   1.490       .  S
O148       Cr153   2.021       .  S
O149       Cr153   1.980       .  S
O149        C150   1.260       .  A
C150        C388   1.484       .  S
Cr151       O154   1.762       .  S
Cr152       O154   1.766       .  S
Cr153       O154   1.765       .  S
O155       Cr173   2.023       .  S
O155        C163   1.272       .  A
O156       Cr173   1.948       .  S
O156        C157   1.254       .  A
C157        O158   1.274       .  A
C157        C181   1.496       .  S
O158       Cr174   2.045       .  S
O159       Cr174   1.985       .  S
O159        C160   1.258   1_545  A
C160        O161   1.264       .  A
C160        C341   1.491       .  S
O161       Cr175   2.008   1_565  S
O162       Cr175   1.969   1_565  S
O162        C163   1.261   1_565  A
C163        C248   1.486   1_545  S
O164       Cr173   1.991       .  S
O164        C172   1.261       .  A
O165       Cr173   2.024       .  S
O165        C166   1.268       .  A
C166        O167   1.255       .  A
C166        C368   1.491       .  S
O167       Cr174   1.963       .  S
O168       Cr174   2.038       .  S
O168        C169   1.276       .  A
C169        O170   1.261       .  A
C169        C261   1.488       .  S
O170       Cr175   1.956       .  S
O171       Cr175   2.013       .  S
O171        C172   1.266       .  A
C172        C401   1.494       .  S
Cr173       O176   1.765       .  S
Cr174       O176   1.770       .  S
Cr175       O176   1.764       .  S
C177        C178   1.413       .  A
C177        C182   1.409       .  A
C177        F195   1.358       .  S
C178        C183   1.493       .  S
C178        C179   1.401       .  A
C179        C180   1.391       .  A
C179        F184   1.358       .  S
C180        C181   1.416       .  A
C180        F196   1.356       .  S
C181        C182   1.410       .  A
C182        F185   1.357       .  S
C183        C186   1.407       .  A
C183        C190   1.413       .  A
C186        C187   1.399       .  A
C186        F191   1.358       .  S
C187        C188   1.408       .  A
C187        F193   1.359       .  S
C188        C189   1.403       .  A
C189        C190   1.401       .  A
C189        F192   1.358       .  S
C190        F194   1.358       .  S
C197        C198   1.407       .  A
C197        C202   1.400       .  A
C197        F215   1.358       .  S
C198        C203   1.492       .  S
C198        C199   1.407       .  A
C199        C200   1.407       .  A
C199        F204   1.358       .  S
C200        C201   1.412       .  A
C200        F216   1.358       .  S
C201        C202   1.409       .  A
C202        F205   1.358       .  S
C203        C206   1.404       .  A
C203        C210   1.407       .  A
C206        C207   1.400       .  A
C206        F211   1.358       .  S
C207        C208   1.414       .  A
C207        F213   1.358       .  S
C208        C209   1.412       .  A
C209        C210   1.406       .  A
C209        F212   1.357       .  S
C210        F214   1.357       .  S
C217        C218   1.403       .  A
C217        C222   1.399       .  A
C217        F235   1.358       .  S
C218        C223   1.479       .  S
C218        C219   1.401       .  A
C219        C220   1.400       .  A
C219        F224   1.358       .  S
C220        C221   1.414       .  A
C220        F236   1.358       .  S
C221        C222   1.411       .  A
C222        F225   1.358       .  S
C223        C226   1.403       .  A
C223        C230   1.403       .  A
C226        C227   1.403   1_545  A
C226        F231   1.357       .  S
C227        C228   1.412       .  A
C227        F233   1.358       .  S
C228        C229   1.411   1_565  A
C229        C230   1.396       .  A
C229        F232   1.358       .  S
C230        F234   1.358       .  S
C237        C238   1.401       .  A
C237        C242   1.396       .  A
C237        F255   1.359       .  S
C238        C243   1.483       .  S
C238        C239   1.406       .  A
C239        C240   1.405       .  A
C239        F244   1.358       .  S
C240        C241   1.411       .  A
C240        F256   1.357       .  S
C241        C242   1.416       .  A
C242        F245   1.358       .  S
C243        C246   1.405       .  A
C243        C250   1.404       .  A
C246        C247   1.397   1_565  A
C246        F251   1.358   1_565  S
C247        C248   1.408   1_545  A
C247        F253   1.357       .  S
C248        C249   1.412       .  A
C249        C250   1.402       .  A
C249        F252   1.358       .  S
C250        F254   1.358       .  S
C257        C258   1.399       .  A
C257        C262   1.395       .  A
C257        F275   1.358       .  S
C258        C263   1.477   1_545  S
C258        C259   1.405       .  A
C259        C260   1.404       .  A
C259        F264   1.358       .  S
C260        C261   1.410       .  A
C260        F276   1.357       .  S
C261        C262   1.413       .  A
C262        F265   1.358       .  S
C263        C266   1.400   1_566  A
C263        C270   1.404       .  A
C266        C267   1.400   1_545  A
C266        F271   1.358       .  S
C267        C268   1.416       .  A
C267        F273   1.358   1_565  S
C268        C269   1.409       .  A
C269        C270   1.399   1_554  A
C269        F272   1.357       .  S
C270        F274   1.358       .  S
C277        C278   1.409       .  A
C277        C282   1.409       .  A
C277        F295   1.358       .  S
C278        C283   1.488   1_556  S
C278        C279   1.400       .  A
C279        C280   1.394       .  A
C279        F284   1.358   1_556  S
C280        C281   1.416       .  A
C280        F296   1.358       .  S
C281        C282   1.411       .  A
C282        F285   1.357       .  S
C283        C286   1.406       .  A
C283        C290   1.408       .  A
C286        C287   1.403       .  A
C286        F291   1.358   1_554  S
C287        C288   1.409       .  A
C287        F293   1.358       .  S
C288        C289   1.404       .  A
C289        C290   1.400       .  A
C289        F292   1.358       .  S
C290        F294   1.358       .  S
C297        C298   1.401       .  A
C297        C302   1.397       .  A
C297        F315   1.358       .  S
C298        C303   1.479   1_556  S
C298        C299   1.405       .  A
C299        C300   1.399       .  A
C299        F304   1.358   1_556  S
C300        C301   1.410       .  A
C300        F316   1.357       .  S
C301        C302   1.414       .  A
C302        F305   1.358       .  S
C303        C306   1.406       .  A
C303        C310   1.403       .  A
C306        C307   1.399       .  A
C306        F311   1.358       .  S
C307        C308   1.407       .  A
C307        F313   1.358       .  S
C308        C309   1.411       .  A
C309        C310   1.398       .  A
C309        F312   1.358       .  S
C310        F314   1.358       .  S
C317        C318   1.403       .  A
C317        C322   1.399       .  A
C317        F335   1.358       .  S
C318        C323   1.472       .  S
C318        C319   1.401       .  A
C319        C320   1.397       .  A
C319        F324   1.358       .  S
C320        C321   1.410       .  A
C320        F336   1.358       .  S
C321        C322   1.408       .  A
C322        F325   1.358       .  S
C323        C326   1.402       .  A
C323        C330   1.399       .  A
C326        C327   1.399       .  A
C326        F331   1.358       .  S
C327        C328   1.412       .  A
C327        F333   1.358       .  S
C328        C329   1.413       .  A
C329        C330   1.396       .  A
C329        F332   1.358       .  S
C330        F334   1.358       .  S
C337        C338   1.402       .  A
C337        C342   1.398       .  A
C337        F355   1.358       .  S
C338        C343   1.479       .  S
C338        C339   1.402       .  A
C339        C340   1.404       .  A
C339        F344   1.357       .  S
C340        C341   1.414       .  A
C340        F356   1.357   1_565  S
C341        C342   1.411       .  A
C342        F345   1.358       .  S
C343        C346   1.403       .  A
C343        C350   1.403       .  A
C346        C347   1.399       .  A
C346        F351   1.358       .  S
C347        C348   1.409       .  A
C347        F353   1.358       .  S
C348        C349   1.410       .  A
C349        C350   1.403       .  A
C349        F352   1.358       .  S
C350        F354   1.358       .  S
C357        C358   1.403       .  A
C357        C362   1.405       .  A
C357        F375   1.357       .  S
C358        C363   1.477       .  S
C358        C359   1.400       .  A
C359        C360   1.394       .  A
C359        F364   1.359       .  S
C360        C361   1.414       .  A
C360        F376   1.358       .  S
C361        C362   1.414       .  A
C362        F365   1.357       .  S
C363        C366   1.400       .  A
C363        C370   1.403       .  A
C366        C367   1.398       .  A
C366        F371   1.358       .  S
C367        C368   1.414       .  A
C367        F373   1.358       .  S
C368        C369   1.412       .  A
C369        C370   1.402       .  A
C369        F372   1.357       .  S
C370        F374   1.358       .  S
C377        C378   1.402       .  A
C377        C382   1.397       .  A
C377        F395   1.358       .  S
C378        C383   1.481   1_655  S
C378        C379   1.407       .  A
C379        C380   1.406       .  A
C379        F384   1.357       .  S
C380        C381   1.408       .  A
C380        F396   1.358       .  S
C381        C382   1.408       .  A
C382        F385   1.358       .  S
C383        C386   1.404       .  A
C383        C390   1.404       .  A
C386        C387   1.399       .  A
C386        F391   1.358       .  S
C387        C388   1.409       .  A
C387        F393   1.358       .  S
C388        C389   1.410       .  A
C389        C390   1.403       .  A
C389        F392   1.358       .  S
C390        F394   1.358       .  S
C397        C398   1.407       .  A
C397        C402   1.408       .  A
C397        F415   1.357       .  S
C398        C403   1.490       .  S
C398        C399   1.404       .  A
C399        C400   1.398       .  A
C399        F404   1.358       .  S
C400        C401   1.412       .  A
C400        F416   1.358   1_545  S
C401        C402   1.412       .  A
C402        F405   1.358       .  S
C403        C406   1.406       .  A
C403        C410   1.408       .  A
C406        C407   1.399       .  A
C406        F411   1.358       .  S
C407        C408   1.406       .  A
C407        F413   1.358       .  S
C408        C409   1.408       .  A
C409        C410   1.407       .  A
C409        F412   1.358       .  S
C410        F414   1.358       .  S
C417        C418   1.401       .  A
C417        C422   1.392       .  A
C417        F435   1.358   1_554  S
C418        C423   1.486   1_554  S
C418        C419   1.409       .  A
C419        C420   1.405       .  A
C419        F424   1.358       .  S
C420        C421   1.409       .  A
C420        F436   1.357       .  S
C421        C422   1.416       .  A
C422        F425   1.357       .  S
C423        C426   1.407       .  A
C423        C430   1.408       .  A
C426        C427   1.400       .  A
C426        F431   1.358   1_556  S
C427        C428   1.406       .  A
C427        F433   1.358       .  S
C428        C429   1.405       .  A
C429        C430   1.398       .  A
C429        F432   1.358       .  S
C430        F434   1.358       .  S
C437        C438   1.403       .  A
C437        C442   1.395       .  A
C437        F455   1.358       .  S
C438        C443   1.485       .  S
C438        C439   1.406       .  A
C439        C440   1.404       .  A
C439        F444   1.358       .  S
C440        C441   1.411       .  A
C440        F456   1.357       .  S
C441        C442   1.413       .  A
C442        F445   1.358       .  S
C443        C446   1.407       .  A
C443        C450   1.408       .  A
C446        C447   1.397       .  A
C446        F451   1.358       .  S
C447        C448   1.404       .  A
C447        F453   1.358       .  S
C448        C449   1.405       .  A
C449        C450   1.403       .  A
C449        F452   1.358       .  S
C450        F454   1.358       .  S
C457        C458   1.406       .  A
C457        C462   1.399       .  A
C457        F475   1.358       .  S
C458        C463   1.492       .  S
C458        C459   1.408       .  A
C459        C460   1.406       .  A
C459        F464   1.357       .  S
C460        C461   1.411       .  A
C460        F476   1.358       .  S
C461        C462   1.410       .  A
C462        F465   1.358       .  S
C463        C466   1.406       .  A
C463        C470   1.408       .  A
C466        C467   1.402       .  A
C466        F471   1.358       .  S
C467        C468   1.412       .  A
C467        F473   1.358       .  S
C468        C469   1.410       .  A
C469        C470   1.402       .  A
C469        F472   1.358       .  S
C470        F474   1.358       .  S
C477        C478   1.405       .  A
C477        C482   1.405       .  A
C477        F495   1.357       .  S
C478        C483   1.487       .  S
C478        C479   1.405       .  A
C479        C480   1.401       .  A
C479        F484   1.358       .  S
C480        C481   1.409       .  A
C480        F496   1.358       .  S
C481        C482   1.410       .  A
C482        F485   1.358       .  S
C483        C486   1.402       .  A
C483        C490   1.405       .  A
C486        C487   1.398       .  A
C486        F491   1.358       .  S
C487        C488   1.414   1_545  A
C487        F493   1.358       .  S
C488        C489   1.414       .  A
C489        C490   1.408   1_565  A
C489        F492   1.357       .  S
C490        F494   1.357       .  S
C497        C498   1.406       .  A
C497        C502   1.400       .  A
C497        F515   1.358       .  S
C498        C503   1.479       .  S
C498        C499   1.402       .  A
C499        C500   1.396       .  A
C499        F504   1.358       .  S
C500        C501   1.412       .  A
C500        F516   1.358       .  S
C501        C502   1.409       .  A
C502        F505   1.358       .  S
C503        C506   1.401   1_554  A
C503        C510   1.405       .  A
C506        C507   1.398       .  A
C506        F511   1.358       .  S
C507        C508   1.416       .  A
C507        F513   1.358       .  S
C508        C509   1.409       .  A
C509        C510   1.398   1_556  A
C509        F512   1.357   1_565  S
C510        F514   1.358       .  S
C517        C518   1.400   1_545  A
C517        C522   1.398   1_545  A
C517        F535   1.358       .  S
C518        C523   1.473   1_565  S
C518        C519   1.402       .  A
C519        C520   1.397       .  A
C519        F524   1.358       .  S
C520        C521   1.411       .  A
C520        F536   1.358       .  S
C521        C522   1.415       .  A
C522        F525   1.358   1_565  S
C523        C526   1.401       .  A
C523        C530   1.403       .  A
C526        C527   1.396       .  A
C526        F531   1.358       .  S
C527        C528   1.409       .  A
C527        F533   1.358       .  S
C528        C529   1.409       .  A
C529        C530   1.398       .  A
C529        F532   1.358       .  S
C530        F534   1.358   1_545  S
C537        C538   1.406       .  A
C537        C542   1.402       .  A
C537        F555   1.358       .  S
C538        C543   1.488   1_655  S
C538        C539   1.407       .  A
C539        C540   1.399       .  A
C539        F544   1.358       .  S
C540        C541   1.408       .  A
C540        F556   1.358       .  S
C541        C542   1.410       .  A
C542        F545   1.358       .  S
C543        C546   1.407       .  A
C543        C550   1.406       .  A
C546        C547   1.403       .  A
C546        F551   1.358       .  S
C547        C548   1.410       .  A
C547        F553   1.358       .  S
C548        C549   1.410       .  A
C549        C550   1.397       .  A
C549        F552   1.358       .  S
C550        F554   1.358       .  S
C557        C558   1.398       .  A
C557        C562   1.392       .  A
C557        F575   1.358       .  S
C558        C563   1.477       .  S
C558        C559   1.409       .  A
C559        C560   1.407       .  A
C559        F564   1.357       .  S
C560        C561   1.406       .  A
C560        F576   1.357       .  S
C561        C562   1.412       .  A
C562        F565   1.359       .  S
C563        C566   1.406       .  A
C563        C570   1.401       .  A
C566        C567   1.402       .  A
C566        F571   1.358       .  S
C567        C568   1.408       .  A
C567        F573   1.358       .  S
C568        C569   1.410       .  A
C569        C570   1.397       .  A
C569        F572   1.358       .  S
C570        F574   1.358       .  S
C577        C578   1.402       .  A
C577        C582   1.395       .  A
C577        F595   1.358       .  S
C578        C583   1.480       .  S
C578        C579   1.407       .  A
C579        C580   1.399       .  A
C579        F584   1.358       .  S
C580        C581   1.409       .  A
C580        F596   1.358       .  S
C581        C582   1.412       .  A
C582        F585   1.358       .  S
C583        C586   1.407       .  A
C583        C590   1.404       .  A
C586        C587   1.397       .  A
C586        F591   1.358       .  S
C587        C588   1.406       .  A
C587        F593   1.358       .  S
C588        C589   1.410       .  A
C589        C590   1.396       .  A
C589        F592   1.358       .  S
C590        F594   1.358       .  S
C597        C598   1.404       .  A
C597        C602   1.400       .  A
C597        F615   1.358       .  S
C598        C603   1.472   1_556  S
C598        C599   1.400       .  A
C599        C600   1.396       .  A
C599        F604   1.358       .  S
C600        C601   1.410       .  A
C600        F616   1.358       .  S
C601        C602   1.407       .  A
C602        F605   1.358       .  S
C603        C606   1.402       .  A
C603        C610   1.400       .  A
C606        C607   1.397       .  A
C606        F611   1.358   1_554  S
C607        C608   1.409       .  A
C607        F613   1.357       .  S
C608        C609   1.412       .  A
C609        C610   1.399       .  A
C609        F612   1.358       .  S
C610        F614   1.358       .  S
C617        C618   1.403       .  A
C617        C622   1.402       .  A
C617        F635   1.357       .  S
C618        C623   1.483       .  S
C618        C619   1.405       .  A
C619        C620   1.400       .  A
C619        F624   1.358       .  S
C620        C621   1.410       .  A
C620        F636   1.358       .  S
C621        C622   1.411       .  A
C622        F625   1.357       .  S
C623        C626   1.402       .  A
C623        C630   1.406       .  A
C626        C627   1.398       .  A
C626        F631   1.358       .  S
C627        C628   1.413       .  A
C627        F633   1.358       .  S
C628        C629   1.410       .  A
C629        C630   1.403       .  A
C629        F632   1.358       .  S
C630        F634   1.358       .  S
C637        C638   1.403       .  A
C637        C642   1.397       .  A
C637        F655   1.358       .  S
C638        C643   1.483       .  S
C638        C639   1.405       .  A
C639        C640   1.405       .  A
C639        F644   1.358       .  S
C640        C641   1.413       .  A
C640        F656   1.358       .  S
C641        C642   1.411       .  A
C642        F645   1.358       .  S
C643        C646   1.405       .  A
C643        C650   1.402       .  A
C646        C647   1.402       .  A
C646        F651   1.358       .  S
C647        C648   1.412       .  A
C647        F653   1.358       .  S
C648        C649   1.414       .  A
C649        C650   1.400       .  A
C649        F652   1.358       .  S
C650        F654   1.358       .  S
