geometry optimzed in LAMMPS
_audit_creation_date              2020-12-01 
_audit_creation_method            'lammps2cif' 
_symmetry_space_group_name_H-M    'P1' 
_symmetry_Int_Tables_number       1 
_symmetry_cell_setting            triclinic 
loop_ 
_symmetry_equiv_pos_as_xyz 
  x,y,z 
_cell_length_a                    70.19641755 
_cell_length_b                    27.94303401121554 
_cell_length_c                    33.157304168189135 
_cell_angle_alpha                 90.11583191457166 
_cell_angle_beta                  89.93005303048871 
_cell_angle_gamma                 90.13200469146277 
loop_ 
_atom_site_label 
_atom_site_type_symbol 
_atom_site_fract_x 
_atom_site_fract_y 
_atom_site_fract_z 
_atom_site_charge 
Fe1        Fe  0.80592841  0.76016435  0.72505603     1.65800
Fe2        Fe  0.80039244  0.87482379  0.70281003     1.73200
Fe3        Fe  0.76376749  0.79962124  0.69122025     1.54400
O4          O  0.76991410  0.73017591  0.66977716    -0.82500
O5          O  0.78029761  0.89639882  0.74173566    -0.80800
O6          O  0.80149669  0.72290134  0.67275875    -0.85000
O7          O  0.78273705  0.72385329  0.75318343    -0.79900
O8          O  0.76791020  0.82683358  0.63452126    -0.81600
O9          O  0.81776508  0.86643775  0.75398687    -0.84400
C10         C  0.76588122  0.73688652  0.76342564     0.96400
C11         C  0.78526632  0.70712976  0.66217479     1.03800
O12         O  0.79011666  0.81115881  0.70546755    -1.13400
O13         O  0.82152617  0.85367201  0.66501167    -0.75800
O14         O  0.83140341  0.79229790  0.70164086    -0.79300
O15         O  0.75800596  0.77280818  0.74732482    -0.80000
C16         C  0.83490693  0.82812743  0.67851023     0.95300
O17         O  0.80989486  0.79525561  0.77808844    -0.77900
O18         O  0.78326020  0.89289371  0.65245437    -0.83100
C19         C  0.76333823  0.90071861  0.73064356     0.97900
C20         C  0.77199901  0.87045585  0.62855725     1.03800
O21         O  0.75481799  0.86817252  0.71040994    -0.78800
C22         C  0.81618892  0.83730361  0.78334959     1.02100
Fe23       Fe  0.94060295  0.97883516  0.71820638     1.65800
Fe24       Fe  0.94826573  0.86407630  0.69914770     1.73200
Fe25       Fe  0.98258035  0.94350826  0.68050474     1.54400
O26         O  0.97478768  0.01154210  0.65939106    -0.82500
O27         O  0.97009453  0.84869441  0.73607439    -0.80800
O28         O  0.94325744  0.01539859  0.66504785    -0.85000
O29         O  0.96363448  0.01774537  0.74355623    -0.79900
O30         O  0.97667074  0.91505942  0.62516650    -0.81600
O31         O  0.93207626  0.87207348  0.75183506    -0.84400
C32         C  0.98072331  0.00611466  0.75300164     0.96400
C33         C  0.95899166  0.03255521  0.65254756     1.03800
O34         O  0.95691533  0.92922076  0.69823450    -1.13400
O35         O  0.92543672  0.87892254  0.66380556    -0.75800
O36         O  0.91543196  0.94298641  0.69748141    -0.79300
O37         O  0.98930168  0.97185295  0.73568771    -0.80000
C38         C  0.91203302  0.90518657  0.67645671     0.95300
O39         O  0.93833632  0.94567610  0.77244643    -0.77900
O40         O  0.96421669  0.84679818  0.64712749    -0.83100
C41         C  0.98678044  0.84547445  0.72282154     0.97900
C42         C  0.97363212  0.87066841  0.62084112     1.03800
O43         O  0.99361171  0.87654072  0.69864026    -0.78800
C44         C  0.93309106  0.90339751  0.77976430     1.02100
Fe45       Fe  0.80344594  0.97210146  0.00806396     1.65800
Fe46       Fe  0.79602021  0.85764101  0.02915489     1.73200
Fe47       Fe  0.76121876  0.93617403  0.04560603     1.54400
O48         O  0.76877597  0.00411436  0.06750589    -0.82500
O49         O  0.77474091  0.84019025  0.99094408    -0.80800
O50         O  0.80036879  0.01046414  0.06070366    -0.85000
O51         O  0.78062508  0.01056931  0.98183655    -0.79900
O52         O  0.76608251  0.90692746  0.10151318    -0.81600
O53         O  0.81329936  0.86509622  0.97836595    -0.84400
C54         C  0.76333023  0.99956478  0.97362907     0.96400
C55         C  0.78454098  0.02550457  0.07450121     1.03800
O56         O  0.78705186  0.92251527  0.02860691    -1.13400
O57         O  0.81808659  0.87503324  0.06601694    -0.75800
O58         O  0.82826954  0.93741885  0.03059175    -0.79300
O59         O  0.75489120  0.96474065  0.99042783    -0.80000
C60         C  0.83155765  0.90066921  0.05278212     0.95300
O61         O  0.80656228  0.93670375  0.95404352    -0.77900
O62         O  0.77945707  0.83985905  0.07970948    -0.83100
C63         C  0.75781912  0.83781252  0.00323764     0.97900
C64         C  0.76981610  0.86276009  0.10600985     1.03800
O65         O  0.75068560  0.86953749  0.02636273    -0.78800
C66         C  0.81247337  0.89422492  0.94909929     1.02100
Fe67       Fe  0.93855227  0.76605232  0.00551410     1.65800
Fe68       Fe  0.94531250  0.88116951  0.02477210     1.73200
Fe69       Fe  0.98055962  0.80468911  0.04195998     1.54400
O70         O  0.97303088  0.73716732  0.06540549    -0.82500
O71         O  0.96618598  0.89820796  0.98557203    -0.80800
O72         O  0.94154000  0.73003683  0.05874072    -0.85000
O73         O  0.96151052  0.72743246  0.97982326    -0.79900
O74         O  0.97598919  0.83563944  0.09743786    -0.81600
O75         O  0.92814208  0.87115432  0.97385088    -0.84400
C76         C  0.97855202  0.73961382  0.97046615     0.96400
C77         C  0.95735656  0.71527633  0.07261458     1.03800
O78         O  0.95464971  0.81677684  0.02531572    -1.13400
O79         O  0.92355002  0.86334607  0.06235639    -0.75800
O80         O  0.91338940  0.80047880  0.02718603    -0.79300
O81         O  0.98681891  0.77467389  0.98727398    -0.80000
C82         C  0.91011674  0.83730153  0.04940628     0.95300
O83         O  0.93601918  0.79944646  0.95114237    -0.77900
O84         O  0.96211363  0.90151391  0.07495728    -0.83100
C85         C  0.98307931  0.90229940  0.99743216     0.97900
C86         C  0.97233713  0.87997164  0.10111398     1.03800
O87         O  0.99063412  0.87144118  0.02082718    -0.78800
C88         C  0.93009909  0.84144103  0.94497165     1.02100
Fe89       Fe  0.05509882  0.51499745  0.75788244     1.65800
Fe90       Fe  0.04931432  0.63026893  0.77789380     1.73200
Fe91       Fe  0.01286470  0.55594710  0.78999813     1.54400
O92         O  0.00764124  0.52785467  0.73433064    -0.82500
O93         O  0.03183742  0.65008958  0.82739265    -0.80800
O94         O  0.03224889  0.47804437  0.73036274    -0.85000
O95         O  0.05031634  0.47853095  0.81058158    -0.79900
O96         O  0.00420426  0.62419796  0.76930457    -0.81600
O97         O  0.06941820  0.60863302  0.81756107    -0.84400
C98         C  0.03391612  0.46450622  0.82217553     0.96400
C99         C  0.01548646  0.49078244  0.71985723     1.03800
O100        O  0.03913925  0.56664057  0.77600617    -1.13400
O101        O  0.06716968  0.62039694  0.72721285    -0.75800
O102        O  0.05911511  0.54893134  0.70408754    -0.79300
O103        O  0.01873552  0.48733559  0.81312688    -0.80000
C104        C  0.06527800  0.59083219  0.69799764     0.95300
O105        O  0.08023073  0.54763651  0.78177957    -0.77900
O106        O  0.02976472  0.65151266  0.73757227    -0.83100
C107        C  0.02089560  0.62762960  0.85191355     0.97900
C108        C  0.01256038  0.65534586  0.74725937     1.03800
O109        O  0.01688117  0.58399447  0.84625463    -0.78800
C110        C  0.08311104  0.58354576  0.80524896     1.02100
Fe111      Fe  0.18854937  0.72116440  0.76457178     1.65800
Fe112      Fe  0.19540518  0.60726156  0.78810480     1.73200
Fe113      Fe  0.23078221  0.68501090  0.80148422     1.54400
O114        O  0.23686401  0.71303290  0.74573369    -0.82500
O115        O  0.21244376  0.58931424  0.83815544    -0.80800
O116        O  0.21129438  0.75911541  0.73741540    -0.85000
O117        O  0.19181968  0.76012704  0.81636106    -0.79900
O118        O  0.24074050  0.61754978  0.78184210    -0.81600
O119        O  0.17425724  0.62795698  0.82599613    -0.84400
C120        C  0.20762757  0.77553752  0.82999003     0.96400
C121        C  0.22839757  0.74738206  0.72848536     1.03800
O122        O  0.20485567  0.67168748  0.78557376    -1.13400
O123        O  0.17777650  0.61431835  0.73754163    -0.75800
O124        O  0.18545743  0.68457780  0.71139063    -0.79300
O125        O  0.22328327  0.75329643  0.82366231    -0.80000
C126        C  0.17949026  0.64199976  0.70735276     0.95300
O127        O  0.16363662  0.68741718  0.78790594    -0.77900
O128        O  0.21594493  0.58730051  0.74908876    -0.83100
C129        C  0.22293907  0.61224864  0.86309061     0.97900
C130        C  0.23307325  0.58521975  0.75987319     1.03800
O131        O  0.22645889  0.65635735  0.85790437    -0.78800
C132        C  0.16064773  0.65190097  0.81160921     1.02100
Fe133      Fe  0.05558683  0.73177960  0.47148525     1.65800
Fe134      Fe  0.04956620  0.61684837  0.45028063     1.73200
Fe135      Fe  0.01418412  0.69285031  0.43168319     1.54400
O136        O  0.00690664  0.72122572  0.48619817    -0.82500
O137        O  0.03378466  0.59789064  0.39831003    -0.80800
O138        O  0.03203887  0.76843050  0.49592621    -0.85000
O139        O  0.05286187  0.76945502  0.41855384    -0.79900
O140        O  0.00394044  0.62570712  0.45054650    -0.81600
O141        O  0.07216998  0.63557204  0.41517948    -0.84400
C142        C  0.03693582  0.78376728  0.40484505     0.96400
C143        C  0.01476104  0.75658130  0.50336670     1.03800
O144        O  0.03996304  0.68101460  0.45008795    -1.13400
O145        O  0.06559472  0.62552319  0.50335821    -0.75800
O146        O  0.05800059  0.69751967  0.52600854    -0.79300
O147        O  0.02136141  0.76113746  0.41063848    -0.80000
C148        C  0.06400110  0.65551033  0.53224791     0.95300
O149        O  0.08122969  0.69896768  0.45091667    -0.77900
O150        O  0.02785138  0.59799309  0.48660568    -0.83100
C151        C  0.02355523  0.61955571  0.37223791     0.97900
C152        C  0.01112005  0.59402212  0.47348516     1.03800
O153        O  0.01994510  0.66385467  0.37605074    -0.78800
C154        C  0.08518631  0.66271931  0.42858511     1.02100
Fe155      Fe  0.18889792  0.51286878  0.47715153     1.65800
Fe156      Fe  0.19899895  0.62770537  0.46372589     1.73200
Fe157      Fe  0.23238886  0.54697028  0.44408495     1.54400
O158        O  0.23721510  0.51559758  0.49872654    -0.82500
O159        O  0.21611279  0.64631918  0.41310548    -0.80800
O160        O  0.21074790  0.47167618  0.50428164    -0.85000
O161        O  0.19254103  0.47672555  0.42371066    -0.79900
O162        O  0.24398414  0.61217363  0.46520767    -0.81600
O163        O  0.17630862  0.61915361  0.42648655    -0.84400
C164        C  0.20846049  0.46080148  0.41117900     0.96400
C165        C  0.22800433  0.48105743  0.51424546     1.03800
O166        O  0.20628940  0.56186484  0.45959626    -1.13400
O167        O  0.18158398  0.61969681  0.51431860    -0.75800
O168        O  0.18510363  0.54427234  0.53246840    -0.79300
O169        O  0.22428274  0.48096635  0.41968680    -0.80000
C170        C  0.18070014  0.58705077  0.54083261     0.95300
O171        O  0.16512275  0.55149423  0.45353769    -0.77900
O172        O  0.22041198  0.63414765  0.50362696    -0.83100
C173        C  0.22542501  0.62342958  0.38594730     0.97900
C174        C  0.23663248  0.64199363  0.48961205     1.03800
O175        O  0.22860166  0.57884467  0.38913756    -0.78800
C176        C  0.16258601  0.59110675  0.43447659     1.02100
Fe177      Fe  0.68845119  0.22719257  0.76066114     1.65800
Fe178      Fe  0.69181570  0.11373020  0.78810687     1.73200
Fe179      Fe  0.72958745  0.18607454  0.79894533     1.54400
O180        O  0.73644933  0.21318288  0.74268493    -0.82500
O181        O  0.70720150  0.09628356  0.84037842    -0.80800
O182        O  0.71214432  0.26323950  0.73627628    -0.85000
O183        O  0.69151778  0.26490506  0.81302237    -0.79900
O184        O  0.73809222  0.11662029  0.78099740    -0.81600
O185        O  0.67086315  0.14155822  0.82295998    -0.84400
C186        C  0.70762343  0.27873922  0.82644381     0.96400
C187        C  0.72904351  0.25034355  0.72722024     1.03800
O188        O  0.70344817  0.17572368  0.78307064    -1.13400
O189        O  0.67643700  0.12155276  0.73370204    -0.75800
O190        O  0.68656840  0.19055631  0.70779965    -0.79300
O191        O  0.72303500  0.25541105  0.81991731    -0.80000
C192        C  0.68055015  0.14815093  0.70355369     0.95300
O193        O  0.66209667  0.19695886  0.77991588    -0.77900
O194        O  0.71203869  0.08454279  0.75396482    -0.83100
C195        C  0.71932371  0.11705905  0.86324071     0.97900
C196        C  0.72921635  0.08190288  0.76410929     1.03800
O197        O  0.72499976  0.15936854  0.85605632    -0.78800
C198        C  0.65785438  0.16419762  0.80529525     1.02100
Fe199      Fe  0.55476224  0.00827662  0.75516852     1.65800
Fe200      Fe  0.54792594  0.12317438  0.77577908     1.73200
Fe201      Fe  0.51250931  0.04599881  0.79079450     1.54400
O202        O  0.50630419  0.01571673  0.73583265    -0.82500
O203        O  0.53100645  0.14255366  0.82546511    -0.80800
O204        O  0.53187554  0.96967237  0.72882593    -0.85000
O205        O  0.55123010  0.97142602  0.80812057    -0.79900
O206        O  0.50270361  0.11322854  0.77039495    -0.81600
O207        O  0.56884467  0.10348327  0.81413957    -0.84400
C208        C  0.53525651  0.95625554  0.82118563     0.96400
C209        C  0.51456360  0.97974707  0.72018736     1.03800
O210        O  0.53842015  0.05872098  0.77447513    -1.13400
O211        O  0.56554654  0.11402767  0.72543140    -0.75800
O212        O  0.55798112  0.04261603  0.70107805    -0.79300
O213        O  0.51972746  0.97831638  0.81371779    -0.80000
C214        C  0.56405517  0.08487097  0.69601540     0.95300
O215        O  0.57985415  0.04277160  0.77771261    -0.77900
O216        O  0.52739283  0.14278882  0.73677999    -0.83100
C217        C  0.52086232  0.12007724  0.85115096     0.97900
C218        C  0.51033884  0.14537743  0.74822232     1.03800
O219        O  0.51710817  0.07590791  0.84663791    -0.78800
C220        C  0.58258839  0.07916657  0.80072771     1.02100
Fe221      Fe  0.68927491  0.01096292  0.47679293     1.65800
Fe222      Fe  0.69720541  0.12603810  0.45794158     1.73200
Fe223      Fe  0.73137287  0.04687558  0.43923474     1.54400
O224        O  0.73779954  0.01751076  0.49413584    -0.82500
O225        O  0.71343968  0.14436931  0.40638906    -0.80800
O226        O  0.71214065  0.97125125  0.50175444    -0.85000
O227        O  0.69172188  0.97442013  0.42316180    -0.79900
O228        O  0.74244547  0.11334242  0.45849154    -0.81600
O229        O  0.67493694  0.10965967  0.42160930    -0.84400
C230        C  0.70744388  0.95855339  0.40939903     0.96400
C231        C  0.72925529  0.98291995  0.51111333     1.03800
O232        O  0.70577226  0.06086726  0.45703171    -1.13400
O233        O  0.68055693  0.11774173  0.51025955    -0.75800
O234        O  0.68728378  0.04428515  0.53137213    -0.79300
O235        O  0.72325292  0.97947579  0.41689286    -0.80000
C236        C  0.68223435  0.08691648  0.53825845     0.95300
O237        O  0.66428077  0.04735689  0.45640496    -0.77900
O238        O  0.71887817  0.14210778  0.49543806    -0.83100
C239        C  0.72301775  0.12121920  0.37988651     0.97900
C240        C  0.73559895  0.14498895  0.48213589     1.03800
O241        O  0.72611169  0.07679240  0.38392329    -0.78800
C242        C  0.66127651  0.08497403  0.43505482     1.02100
Fe243      Fe  0.55391928  0.22546442  0.47129539     1.65800
Fe244      Fe  0.54885144  0.11008591  0.45023230     1.73200
Fe245      Fe  0.51243211  0.18417271  0.43479646     1.54400
O246        O  0.50573340  0.21297564  0.49000833    -0.82500
O247        O  0.53326790  0.09065335  0.39839444    -0.80800
O248        O  0.53043188  0.26222419  0.49612574    -0.85000
O249        O  0.55059393  0.26120597  0.41789705    -0.79900
O250        O  0.50300273  0.11630590  0.45430497    -0.81600
O251        O  0.57047805  0.13230885  0.41419669    -0.84400
C252        C  0.53451195  0.27496581  0.40452646     0.96400
C253        C  0.51350902  0.24960863  0.50568897     1.03800
O254        O  0.53842228  0.17346135  0.45147867    -1.13400
O255        O  0.56485274  0.12014541  0.50332140    -0.75800
O256        O  0.55662915  0.19205271  0.52533649    -0.79300
O257        O  0.51909336  0.25228272  0.41211091    -0.80000
C258        C  0.56289697  0.15047478  0.53192143     0.95300
O259        O  0.57987857  0.19334501  0.45165958    -0.77900
O260        O  0.52787121  0.08708415  0.48670640    -0.83100
C261        C  0.52257324  0.11247458  0.37323399     0.97900
C262        C  0.51084915  0.08355639  0.47523360     1.03800
O263        O  0.51762483  0.15554185  0.37895497    -0.78800
C264        C  0.58366684  0.15679215  0.42967855     1.02100
Fe265      Fe  0.68781260  0.72418147  0.25960137     1.65800
Fe266      Fe  0.69485271  0.60857509  0.27582334     1.73200
Fe267      Fe  0.72970849  0.68576440  0.29557187     1.54400
O268        O  0.73633887  0.71743162  0.24179048    -0.82500
O269        O  0.71136711  0.58753350  0.32584765    -0.80800
O270        O  0.71071357  0.76344821  0.23479375    -0.85000
O271        O  0.69071925  0.75935977  0.31336072    -0.79900
O272        O  0.73997086  0.61940891  0.27365452    -0.81600
O273        O  0.67324085  0.62484907  0.31387284    -0.84400
C274        C  0.70646615  0.77420361  0.32744611     0.96400
C275        C  0.72800206  0.75315609  0.22621308     1.03800
O276        O  0.70400729  0.67331349  0.27784333    -1.13400
O277        O  0.67768291  0.61927995  0.22488771    -0.75800
O278        O  0.68500499  0.69225526  0.20464998    -0.79300
O279        O  0.72220282  0.75279382  0.32005282    -0.80000
C280        C  0.67895987  0.65062650  0.19713606     0.95300
O281        O  0.66290703  0.68890522  0.28094506    -0.77900
O282        O  0.71595007  0.59269219  0.23684188    -0.83100
C283        C  0.72085214  0.60954607  0.35301881     0.97900
C284        C  0.73272248  0.58867135  0.24948275     1.03800
O285        O  0.72429521  0.65403256  0.35008042    -0.78800
C286        C  0.65981358  0.65181798  0.30277718     1.02100
Fe287      Fe  0.55539893  0.50947426  0.25524240     1.65800
Fe288      Fe  0.54882801  0.62383046  0.27677345     1.73200
Fe289      Fe  0.51318178  0.54708424  0.29062888     1.54400
O290        O  0.50734005  0.51879523  0.23520455    -0.82500
O291        O  0.53153930  0.64288067  0.32641661    -0.80800
O292        O  0.53260466  0.47152927  0.22807653    -0.85000
O293        O  0.55176068  0.47300921  0.30778076    -0.79900
O294        O  0.50360063  0.61427758  0.26995998    -0.81600
O295        O  0.56970273  0.60399989  0.31534354    -0.84400
C296        C  0.53590059  0.45656648  0.31970251     0.96400
C297        C  0.51565380  0.48387490  0.21844399     1.03800
O298        O  0.53920045  0.55968194  0.27504230    -1.13400
O299        O  0.56663456  0.61515971  0.22633097    -0.75800
O300        O  0.55879881  0.54411326  0.20167748    -0.79300
O301        O  0.52022647  0.47856867  0.31287472    -0.80000
C302        C  0.56508057  0.58612913  0.19677807     0.95300
O303        O  0.58028673  0.54297742  0.27868786    -0.77900
O304        O  0.52857728  0.64300899  0.23729420    -0.83100
C305        C  0.52109665  0.62051503  0.35175164     0.97900
C306        C  0.51143814  0.64623903  0.24795950     1.03800
O307        O  0.51736415  0.57634298  0.34694626    -0.78800
C308        C  0.58324079  0.57830009  0.30267416     1.02100
Fe309      Fe  0.68718159  0.51062902  0.97446733     1.65800
Fe310      Fe  0.69375161  0.62546277  0.95340046     1.73200
Fe311      Fe  0.72970992  0.54948309  0.94136750     1.54400
O312        O  0.73500893  0.52031561  0.99679573    -0.82500
O313        O  0.71141018  0.64504923  0.90422431    -0.80800
O314        O  0.70975455  0.47260303  0.00173513    -0.85000
O315        O  0.69134350  0.47430058  0.92157145    -0.79900
O316        O  0.73903403  0.61651341  0.96233718    -0.81600
O317        O  0.67304980  0.60447530  0.91434262    -0.84400
C318        C  0.70751574  0.46069512  0.90867181     0.96400
C319        C  0.72677187  0.48395994  0.01170360     1.03800
O320        O  0.70351406  0.56146651  0.95570573    -1.13400
O321        O  0.67569895  0.61616332  0.00323801    -0.75800
O322        O  0.68333306  0.54519807  0.02822324    -0.79300
O323        O  0.72304361  0.48197065  0.91788585    -0.80000
C324        C  0.67703295  0.58727579  0.03282518     0.95300
O325        O  0.66234590  0.54388631  0.95104457    -0.77900
O326        O  0.71368972  0.64604192  0.99361362    -0.83100
C327        C  0.72249079  0.62265985  0.88000970     0.97900
C328        C  0.73096976  0.64847877  0.98385899     1.03800
O329        O  0.72600793  0.57866399  0.88518950    -0.78800
C330        C  0.65938324  0.57967295  0.92772971     1.02100
Fe331      Fe  0.55343561  0.72036328  0.96901219     1.65800
Fe332      Fe  0.54563212  0.60533586  0.95278859     1.73200
Fe333      Fe  0.51124736  0.68316906  0.93211455     1.54400
O334        O  0.50474039  0.71509230  0.98622812    -0.82500
O335        O  0.52925009  0.58468680  0.90229836    -0.80800
O336        O  0.53068865  0.76030299  0.99365075    -0.85000
O337        O  0.55082211  0.75554225  0.91527537    -0.79900
O338        O  0.50039317  0.61709730  0.95309489    -0.81600
O339        O  0.56783412  0.61948939  0.91562735    -0.84400
C340        C  0.53518771  0.77091996  0.90112694     0.96400
C341        C  0.51334658  0.75036091  0.00225660     1.03800
O342        O  0.53699264  0.67018019  0.94998359    -1.13400
O343        O  0.56254521  0.61531614  0.00430506    -0.75800
O344        O  0.55588768  0.68877690  0.02417002    -0.79300
O345        O  0.51930987  0.74985071  0.90810586    -0.80000
C346        C  0.56165716  0.64706689  0.03187875     0.95300
O347        O  0.57828552  0.68390605  0.94825264    -0.77900
O348        O  0.52410808  0.59280084  0.99117681    -0.83100
C349        C  0.51966827  0.60604392  0.87503114     0.97900
C350        C  0.50767619  0.58686891  0.97734740     1.03800
O351        O  0.51638806  0.65070323  0.87748281    -0.78800
C352        C  0.58137054  0.64570905  0.92757943     1.02100
Fe353      Fe  0.30593092  0.76168548  0.22547092     1.65800
Fe354      Fe  0.29848152  0.87589346  0.20322338     1.73200
Fe355      Fe  0.26308484  0.79686967  0.19213874     1.54400
O356        O  0.27063313  0.72933605  0.16926518    -0.82500
O357        O  0.27795834  0.89683225  0.24149404    -0.80800
O358        O  0.30239007  0.72407974  0.17287308    -0.85000
O359        O  0.28368797  0.72214432  0.25268875    -0.79900
O360        O  0.26631851  0.82551916  0.13558338    -0.81600
O361        O  0.31561031  0.86910304  0.25496340    -0.84400
C362        C  0.26673055  0.73272219  0.26349099     0.96400
C363        C  0.28635297  0.70862694  0.16049487     1.03800
O364        O  0.28921600  0.81119570  0.20599880    -1.13400
O365        O  0.32004821  0.85625487  0.16571055    -0.75800
O366        O  0.33079643  0.79648801  0.20288548    -0.79300
O367        O  0.25810494  0.76812768  0.24812628    -0.80000
C368        C  0.33377650  0.83252613  0.17980100     0.95300
O369        O  0.30874828  0.79706486  0.27890791    -0.77900
O370        O  0.28132376  0.89237628  0.15282106    -0.83100
C371        C  0.26053475  0.89721364  0.23279708     0.97900
C372        C  0.27013055  0.86922177  0.12931017     1.03800
O373        O  0.25279269  0.86347518  0.21260953    -0.78800
C374        C  0.31409942  0.83982950  0.28435410     1.02100
Fe375      Fe  0.44044319  0.97503236  0.22138530     1.65800
Fe376      Fe  0.44707290  0.86011874  0.20231308     1.73200
Fe377      Fe  0.48225431  0.93630358  0.18316165     1.54400
O378        O  0.47486201  0.00383653  0.16028322    -0.82500
O379        O  0.46847940  0.84404493  0.24005111    -0.80800
O380        O  0.44334634  0.01154185  0.16817588    -0.85000
O381        O  0.46369151  0.01339966  0.24600158    -0.79900
O382        O  0.47688955  0.90584312  0.12779758    -0.81600
O383        O  0.43039323  0.86965478  0.25430773    -0.84400
C384        C  0.48075000  0.00114814  0.25476450     0.96400
C385        C  0.45920742  0.02592944  0.15397160     1.03800
O386        O  0.45640980  0.92443419  0.20107851    -1.13400
O387        O  0.42511061  0.87747755  0.16564573    -0.75800
O388        O  0.41503016  0.94021343  0.20071498    -0.79300
O389        O  0.48897145  0.96599619  0.23791838    -0.80000
C390        C  0.41167895  0.90279744  0.17916496     0.95300
O391        O  0.43784661  0.94197072  0.27622533    -0.77900
O392        O  0.46307322  0.84006936  0.15110486    -0.83100
C393        C  0.48492639  0.83805687  0.22605248     0.97900
C394        C  0.47278648  0.86171159  0.12409789     1.03800
O395        O  0.49244764  0.86927677  0.20297232    -0.78800
C396        C  0.43166399  0.90019121  0.28280324     1.02100
Fe397      Fe  0.30235103  0.97389640  0.51500827     1.65800
Fe398      Fe  0.29505465  0.85821875  0.52957137     1.73200
Fe399      Fe  0.26054828  0.93477095  0.55203391     1.54400
O400        O  0.26810124  0.00140488  0.57623458    -0.82500
O401        O  0.27328991  0.84737677  0.49126421    -0.80800
O402        O  0.29963386  0.00828948  0.56950456    -0.85000
O403        O  0.27897027  0.01344924  0.49119329    -0.79900
O404        O  0.26627956  0.90299478  0.60614563    -0.81600
O405        O  0.31153456  0.86933509  0.47768838    -0.84400
C406        C  0.26160545  0.00248459  0.48292387     0.96400
C407        C  0.28383117  0.02263391  0.58387129     1.03800
O408        O  0.28634874  0.92290404  0.53382599    -1.13400
O409        O  0.31775120  0.87095644  0.56582833    -0.75800
O410        O  0.32755424  0.93753281  0.53524941    -0.79300
O411        O  0.25367773  0.96624520  0.49853205    -0.80000
C412        C  0.33103580  0.89899292  0.55525047     0.95300
O413        O  0.30482621  0.94315742  0.45913112    -0.77900
O414        O  0.27908642  0.83680488  0.58104156    -0.83100
C415        C  0.25719960  0.83922094  0.50602882     0.97900
C416        C  0.26985738  0.85868938  0.60892465     1.03800
O417        O  0.24990076  0.86860573  0.53097120    -0.78800
C418        C  0.31030087  0.90134501  0.45051239     1.02100
Fe419      Fe  0.43658870  0.75638829  0.50592819     1.65800
Fe420      Fe  0.44325282  0.87112944  0.52809284     1.73200
Fe421      Fe  0.47894698  0.79405691  0.54143711     1.54400
O422        O  0.47176088  0.72580097  0.56409910    -0.82500
O423        O  0.46384030  0.89152589  0.48958747    -0.80800
O424        O  0.44011573  0.71831282  0.55820419    -0.85000
O425        O  0.45940256  0.71836492  0.47870823    -0.79900
O426        O  0.47493679  0.82336886  0.59782638    -0.81600
O427        O  0.42598784  0.86313319  0.47677870    -0.84400
C428        C  0.47662950  0.72931245  0.46984591     0.96400
C429        C  0.45608892  0.70396732  0.57161970     1.03800
O430        O  0.45284124  0.80670609  0.52619221    -1.13400
O431        O  0.42178888  0.85136332  0.56567378    -0.75800
O432        O  0.41143123  0.78980338  0.52928024    -0.79300
O433        O  0.48483942  0.76503765  0.48595334    -0.80000
C434        C  0.40827986  0.82553450  0.55283393     0.95300
O435        O  0.43356911  0.79188993  0.45243655    -0.77900
O436        O  0.46013438  0.88954743  0.57852875    -0.83100
C437        C  0.48100891  0.89426931  0.50008044     0.97900
C438        C  0.47078238  0.86714884  0.60336050     1.03800
O439        O  0.48879033  0.86141814  0.52108828    -0.78800
C440        C  0.42772404  0.83421000  0.44719349     1.02100
Fe441      Fe  0.80381353  0.26050670  0.22472085     1.65800
Fe442      Fe  0.79737786  0.37519214  0.20411460     1.73200
Fe443      Fe  0.76189037  0.29875855  0.18744202     1.54400
O444        O  0.76916842  0.23095593  0.16415936    -0.82500
O445        O  0.77662469  0.39453214  0.24270528    -0.80800
O446        O  0.80062903  0.22291770  0.17180103    -0.85000
O447        O  0.78070075  0.22271853  0.25055420    -0.79900
O448        O  0.76688639  0.32878535  0.13188994    -0.81600
O449        O  0.81458929  0.36620390  0.25522314    -0.84400
C450        C  0.76355296  0.23444489  0.25933485     0.96400
C451        C  0.78476663  0.20863024  0.15745299     1.03800
O452        O  0.78773471  0.31094401  0.20466957    -1.13400
O453        O  0.81859120  0.35517428  0.16623797    -0.75800
O454        O  0.82917146  0.29477090  0.20305640    -0.79300
O455        O  0.75525257  0.26906585  0.24212808    -0.80000
C456        C  0.83223826  0.33137438  0.18050772     0.95300
O457        O  0.80662318  0.29502704  0.27899076    -0.77900
O458        O  0.78074227  0.39493331  0.15414661    -0.83100
C459        C  0.75965377  0.39774341  0.23100942     0.97900
C460        C  0.77054833  0.37307849  0.12813746     1.03800
O461        O  0.75206554  0.36604187  0.20820053    -0.78800
C462        C  0.81288006  0.33702762  0.28450606     1.02100
Fe463      Fe  0.93711292  0.48222107  0.22354813     1.65800
Fe464      Fe  0.94452994  0.36719410  0.20589402     1.73200
Fe465      Fe  0.97932441  0.44432334  0.18739625     1.54400
O466        O  0.97178596  0.51126568  0.16351639    -0.82500
O467        O  0.96547292  0.35240274  0.24521000    -0.80800
O468        O  0.94022496  0.51784068  0.16996294    -0.85000
O469        O  0.96013960  0.52204068  0.24891445    -0.79900
O470        O  0.97444640  0.41304925  0.13227105    -0.81600
O471        O  0.92708798  0.37704521  0.25646285    -0.84400
C472        C  0.97742867  0.51107342  0.25738094     0.96400
C473        C  0.95605753  0.53249153  0.15593749     1.03800
O474        O  0.95349873  0.43185431  0.20459203    -1.13400
O475        O  0.92307688  0.38344122  0.16767615    -0.75800
O476        O  0.91212286  0.44571786  0.20204805    -0.79300
O477        O  0.98557592  0.47513667  0.24164197    -0.80000
C478        C  0.90927938  0.40785415  0.18061936     0.95300
O479        O  0.93405557  0.44969483  0.27836482    -0.77900
O480        O  0.96130246  0.34674970  0.15600396    -0.83100
C481        C  0.98208336  0.34679002  0.23200156     0.97900
C482        C  0.97093754  0.36860465  0.12903395     1.03800
O483        O  0.98959327  0.37789869  0.20871879    -0.78800
C484        C  0.92798685  0.40766140  0.28480299     1.02100
Fe485      Fe  0.80251917  0.47708748  0.51065420     1.65800
Fe486      Fe  0.79701228  0.36138677  0.52820155     1.73200
Fe487      Fe  0.76055387  0.43492169  0.54468200     1.54400
O488        O  0.76668250  0.50269324  0.56942787    -0.82500
O489        O  0.77682233  0.34282791  0.48801335    -0.80800
O490        O  0.79818116  0.51265535  0.56387001    -0.85000
O491        O  0.77957275  0.51362091  0.48408424    -0.79900
O492        O  0.76513464  0.40370364  0.60008371    -0.81600
O493        O  0.81463512  0.37283355  0.47791365    -0.84400
C494        C  0.76259185  0.50172268  0.47445202     0.96400
C495        C  0.78201505  0.52568518  0.57731104     1.03800
O496        O  0.78679036  0.42501598  0.52892208    -1.13400
O497        O  0.81783336  0.38074547  0.56727512    -0.75800
O498        O  0.82767187  0.44506964  0.53389836    -0.79300
O499        O  0.75441084  0.46561985  0.49002242    -0.80000
C500        C  0.83100569  0.40895445  0.55663325     0.95300
O501        O  0.80638762  0.44434074  0.45604128    -0.77900
O502        O  0.78022635  0.33929056  0.57779226    -0.83100
C503        C  0.75991609  0.33737074  0.49941086     0.97900
C504        C  0.76980175  0.36000789  0.60414103     1.03800
O505        O  0.75173347  0.36760207  0.52255812    -0.78800
C506        C  0.81276770  0.40284984  0.44930868     1.02100
Fe507      Fe  0.93526254  0.27215877  0.50827553     1.65800
Fe508      Fe  0.94280429  0.38652069  0.52961770     1.73200
Fe509      Fe  0.97788995  0.30818599  0.54345247     1.54400
O510        O  0.97049557  0.24081915  0.56677853    -0.82500
O511        O  0.96322807  0.40433853  0.48965133    -0.80800
O512        O  0.93907930  0.23351668  0.56006428    -0.85000
O513        O  0.95749633  0.23404773  0.47958670    -0.79900
O514        O  0.97398640  0.33856124  0.59937218    -0.81600
O515        O  0.92449956  0.37876315  0.48055419    -0.84400
C516        C  0.97476061  0.24465900  0.47077071     0.96400
C517        C  0.95489572  0.21834972  0.57337322     1.03800
O518        O  0.95189497  0.32168077  0.52808608    -1.13400
O519        O  0.92175935  0.36860079  0.56867993    -0.75800
O520        O  0.91093353  0.30625817  0.53357535    -0.79300
O521        O  0.98355405  0.27824962  0.48848433    -0.80000
C522        C  0.90818227  0.34203692  0.55724375     0.95300
O523        O  0.93161037  0.30801493  0.45497792    -0.77900
O524        O  0.96033269  0.40514879  0.57817032    -0.83100
C525        C  0.98045401  0.40663113  0.49998917     0.97900
C526        C  0.97059176  0.38291621  0.60356304     1.03800
O527        O  0.98802749  0.37437306  0.52189394    -0.78800
C528        C  0.92593357  0.35068287  0.45060018     1.02100
Fe529      Fe  0.05377121  0.01969445  0.25988753     1.65800
Fe530      Fe  0.04568319  0.13376988  0.28045816     1.73200
Fe531      Fe  0.01088652  0.05457173  0.29444145     1.54400
O532        O  0.00562741  0.02419954  0.23912848    -0.82500
O533        O  0.02796255  0.15235106  0.32959997    -0.80800
O534        O  0.03156649  0.97925499  0.23287049    -0.85000
O535        O  0.05064578  0.98276228  0.31242277    -0.79900
O536        O  0.00045443  0.12116793  0.27308780    -0.81600
O537        O  0.06699351  0.11681072  0.31913352    -0.84400
C538        C  0.03485092  0.96710877  0.32578569     0.96400
C539        C  0.01439915  0.98933795  0.22308294     1.03800
O540        O  0.03689857  0.06875693  0.27951858    -1.13400
O541        O  0.06364687  0.12568943  0.23050907    -0.75800
O542        O  0.05651653  0.05407097  0.20612564    -0.79300
O543        O  0.01890417  0.98762697  0.31847993    -0.80000
C544        C  0.06218325  0.09656530  0.20108002     0.95300
O545        O  0.07825697  0.05617706  0.28291373    -0.77900
O546        O  0.02529177  0.14972060  0.24029047    -0.83100
C547        C  0.01732583  0.12957830  0.35441154     0.97900
C548        C  0.00827534  0.15356805  0.25145952     1.03800
O549        O  0.01444536  0.08506845  0.35026977    -0.78800
C550        C  0.08088404  0.09284526  0.30574774     1.02100
Fe551      Fe  0.18868095  0.22760112  0.26426607     1.65800
Fe552      Fe  0.19241324  0.11368383  0.29115576     1.73200
Fe553      Fe  0.22993207  0.18613771  0.30102254     1.54400
O554        O  0.23651796  0.21075979  0.24456106    -0.82500
O555        O  0.20854005  0.09637200  0.34307221    -0.80800
O556        O  0.21257628  0.26208927  0.23790583    -0.85000
O557        O  0.19256865  0.26545876  0.31650438    -0.79900
O558        O  0.23827798  0.11670762  0.28322630    -0.81600
O559        O  0.17167988  0.14120179  0.32702528    -0.84400
C560        C  0.20880077  0.27879554  0.32934376     0.96400
C561        C  0.22926550  0.24744673  0.22837931     1.03800
O562        O  0.20375244  0.17587535  0.28568475    -1.13400
O563        O  0.17602540  0.12144245  0.23803654    -0.75800
O564        O  0.18515771  0.19094904  0.21162945    -0.79300
O565        O  0.22417579  0.25619088  0.32121455    -0.80000
C566        C  0.17796168  0.14957561  0.20784347     0.95300
O567        O  0.16246326  0.19824990  0.28564162    -0.77900
O568        O  0.21241642  0.08528286  0.25518001    -0.83100
C569        C  0.22008964  0.11903047  0.36615161     0.97900
C570        C  0.22981329  0.08309961  0.26409950     1.03800
O571        O  0.22499841  0.16162022  0.35833561    -0.78800
C572        C  0.15852900  0.16424252  0.31015838     1.02100
Fe573      Fe  0.05223627  0.23032254  0.97218256     1.65800
Fe574      Fe  0.04425690  0.11506941  0.95656781     1.73200
Fe575      Fe  0.00993281  0.19332872  0.93723259     1.54400
O576        O  0.00392506  0.22354001  0.99206767    -0.82500
O577        O  0.02798592  0.09550988  0.90513006    -0.80800
O578        O  0.02949023  0.27053418  0.99705264    -0.85000
O579        O  0.04928203  0.26398913  0.91784467    -0.79900
O580        O  0.99918389  0.12643668  0.95728580    -0.81600
O581        O  0.06664175  0.12908692  0.91970151    -0.84400
C582        C  0.03357453  0.28183750  0.90648870     0.96400
C583        C  0.01243203  0.25944756  0.00726302     1.03800
O584        O  0.03572164  0.17997519  0.95412397    -1.13400
O585        O  0.06077248  0.12514905  0.00858629    -0.75800
O586        O  0.05477573  0.19954417  0.02728365    -0.79300
O587        O  0.01767139  0.26120295  0.91426479    -0.80000
C588        C  0.05959713  0.15732633  0.03580302     0.95300
O589        O  0.07709705  0.19350156  0.95200278    -0.77900
O590        O  0.02284476  0.10199498  0.99525243    -0.83100
C591        C  0.01858837  0.11834340  0.87817171     0.97900
C592        C  0.00641035  0.09616554  0.98162236     1.03800
O593        O  0.01508994  0.16261369  0.88219926    -0.78800
C594        C  0.08023484  0.15487282  0.93196252     1.02100
Fe595      Fe  0.18599706  0.01123811  0.98124727     1.65800
Fe596      Fe  0.19344405  0.12649412  0.96302336     1.73200
Fe597      Fe  0.22792383  0.04831087  0.94353962     1.54400
O598        O  0.23466414  0.01776953  0.99736092    -0.82500
O599        O  0.21000547  0.14648494  0.91242229    -0.80800
O600        O  0.20901163  0.97216831  0.00666077    -0.85000
O601        O  0.18874165  0.97469437  0.92784612    -0.79900
O602        O  0.23862466  0.11421026  0.96474097    -0.81600
O603        O  0.17156027  0.10977862  0.92580227    -0.84400
C604        C  0.20437656  0.95941987  0.91351452     0.96400
C605        C  0.22635954  0.98322192  0.01468514     1.03800
O606        O  0.20232423  0.06154217  0.96177109    -1.13400
O607        O  0.17650944  0.11721877  0.01494603    -0.75800
O608        O  0.18344001  0.04432698  0.03585066    -0.79300
O609        O  0.22010098  0.98131720  0.92001091    -0.80000
C610        C  0.17765658  0.08621926  0.04305710     0.95300
O611        O  0.16091083  0.04685307  0.95996608    -0.77900
O612        O  0.21474843  0.14276836  0.00103890    -0.83100
C613        C  0.21968829  0.12388847  0.88586333     0.97900
C614        C  0.23165637  0.14531781  0.98881718     1.03800
O615        O  0.22261983  0.07926580  0.88885696    -0.78800
C616        C  0.15793002  0.08440581  0.93848228     1.02100
Fe617      Fe  0.30327326  0.25935057  0.72961840     1.65800
Fe618      Fe  0.29549094  0.37442132  0.71243788     1.73200
Fe619      Fe  0.26060647  0.29642320  0.69573467     1.54400
O620        O  0.26773394  0.22861114  0.67275978    -0.82500
O621        O  0.27464116  0.38971236  0.75244022    -0.80800
O622        O  0.29928712  0.22268240  0.67680322    -0.85000
O623        O  0.28073196  0.22120325  0.75748776    -0.79900
O624        O  0.26488245  0.32684645  0.63997818    -0.81600
O625        O  0.31339455  0.36542026  0.76219173    -0.84400
C626        C  0.26362009  0.23207741  0.76728917     0.96400
C627        C  0.28328173  0.20687592  0.66477170     1.03800
O628        O  0.28666295  0.30952113  0.71147178    -1.13400
O629        O  0.31694051  0.35904512  0.67363402    -0.75800
O630        O  0.32778105  0.29413200  0.70499938    -0.79300
O631        O  0.25503112  0.26692803  0.75092397    -0.80000
C632        C  0.33047397  0.33145910  0.68308014     0.95300
O633        O  0.30731320  0.29233680  0.78404637    -0.77900
O634        O  0.27835346  0.39336414  0.66294437    -0.83100
C635        C  0.25784209  0.39392099  0.73999005     0.97900
C636        C  0.26855051  0.37123474  0.63635294     1.03800
O637        O  0.25041503  0.36311115  0.71630917    -0.78800
C638        C  0.31307887  0.33452519  0.79035390     1.02100
Fe639      Fe  0.43655486  0.46959486  0.72166051     1.65800
Fe640      Fe  0.44329081  0.35383237  0.70237704     1.73200
Fe641      Fe  0.47835530  0.43169914  0.68419781     1.54400
O642        O  0.47098549  0.49902655  0.66082375    -0.82500
O643        O  0.46471154  0.33575305  0.74020300    -0.80800
O644        O  0.43959012  0.50697032  0.66874996    -0.85000
O645        O  0.45946939  0.50792639  0.74743909    -0.79900
O646        O  0.47304058  0.40094965  0.62911670    -0.81600
O647        O  0.42644384  0.36317860  0.75391958    -0.84400
C648        C  0.47673778  0.49706490  0.75552112     0.96400
C649        C  0.45539826  0.52119559  0.65420805     1.03800
O650        O  0.45258829  0.41881685  0.70183009    -1.13400
O651        O  0.42104123  0.37098021  0.66577703    -0.75800
O652        O  0.41158267  0.43552238  0.69956198    -0.79300
O653        O  0.48506261  0.46201575  0.73873991    -0.80000
C654        C  0.40794570  0.39898833  0.67734072     0.95300
O655        O  0.43360367  0.43577979  0.77597453    -0.77900
O656        O  0.45965687  0.33414316  0.65154754    -0.83100
C657        C  0.48167392  0.33375953  0.72799096     0.97900
C658        C  0.46960241  0.35651110  0.62533829     1.03800
O659        O  0.48872132  0.36542653  0.70464009    -0.78800
C660        C  0.42767108  0.39372297  0.78237903     1.02100
Fe661      Fe  0.30502787  0.47256434  0.01468121     1.65800
Fe662      Fe  0.30010456  0.35749136  0.03648730     1.73200
Fe663      Fe  0.26366418  0.43209181  0.05200534     1.54400
O664        O  0.27046437  0.50054328  0.07473130    -0.82500
O665        O  0.27943073  0.33478318  0.99921828    -0.80800
O666        O  0.30190285  0.50918733  0.06765310    -0.85000
O667        O  0.28165671  0.50955533  0.98953693    -0.79900
O668        O  0.26870156  0.40275894  0.10774471    -0.81600
O669        O  0.31664579  0.36722920  0.98405561    -0.84400
C670        C  0.26463063  0.49703287  0.98058820     0.96400
C671        C  0.28595594  0.52351535  0.08130063     1.03800
O672        O  0.28960692  0.42100560  0.03514121    -1.13400
O673        O  0.32155650  0.37971651  0.07301598    -0.75800
O674        O  0.33073251  0.44066722  0.03515698    -0.79300
O675        O  0.25679125  0.46114418  0.99707640    -0.80000
C676        C  0.33465325  0.40546877  0.05839658     0.95300
O677        O  0.30766743  0.43795803  0.96102620    -0.77900
O678        O  0.28402325  0.33756518  0.08772885    -0.83100
C679        C  0.26224832  0.33238011  0.00969567     0.97900
C680        C  0.27323682  0.35927506  0.11292698     1.03800
O681        O  0.25440516  0.36448874  0.03158720    -0.78800
C682        C  0.31449039  0.39675536  0.95507277     1.02100
Fe683      Fe  0.43873587  0.25788511  0.00828044     1.65800
Fe684      Fe  0.44570406  0.37351379  0.02528848     1.73200
Fe685      Fe  0.48139353  0.29729586  0.03935711     1.54400
O686        O  0.47483974  0.22981521  0.06361365    -0.82500
O687        O  0.46574682  0.39101001  0.98433079    -0.80800
O688        O  0.44309046  0.22307890  0.06185298    -0.85000
O689        O  0.46124475  0.21915161  0.98106367    -0.79900
O690        O  0.47764849  0.32802076  0.09494034    -0.81600
O691        O  0.42763736  0.36279265  0.97570655    -0.84400
C692        C  0.47813041  0.23052156  0.97001274     0.96400
C693        C  0.45935664  0.20862858  0.07338826     1.03800
O694        O  0.45515942  0.30916490  0.02533179    -1.13400
O695        O  0.42490902  0.35576078  0.06492667    -0.75800
O696        O  0.41398467  0.29238756  0.03158543    -0.79300
O697        O  0.48646919  0.26708649  0.98431261    -0.80000
C698        C  0.41122540  0.32957910  0.05358832     0.95300
O699        O  0.43482194  0.29024484  0.95383185    -0.77900
O700        O  0.46318293  0.39405425  0.07432788    -0.83100
C701        C  0.48291968  0.39450520  0.99438225     0.97900
C702        C  0.47368062  0.37190751  0.09972250     1.03800
O703        O  0.49084108  0.36374140  0.01722926    -0.78800
C704        C  0.42870135  0.33201882  0.94734886     1.02100
C705        C  0.38888307  0.39795765  0.05601647    -0.10000
C706        C  0.39174673  0.34832958  0.06066348     0.06200
C707        C  0.37590334  0.31897091  0.06828228    -0.03800
C708        C  0.35767343  0.33923413  0.07029501    -0.08200
C709        C  0.35463884  0.38862133  0.06352691     0.05300
C710        C  0.37064210  0.41810404  0.05679864    -0.03200
Br711      Br  0.36874577  0.48577596  0.04766270    -0.02900
H712        H  0.40090043  0.42120641  0.04975142     0.09200
H713        H  0.34568198  0.31547774  0.07518320     0.07300
Br714      Br  0.37832487  0.25124609  0.07601506    -0.03400
C715        C  0.42323828  0.32952829  0.83323122    -0.10000
C716        C  0.42333163  0.37865230  0.82439071     0.06200
C717        C  0.42155751  0.41157387  0.85668809    -0.03800
C718        C  0.42189914  0.39515633  0.89650871    -0.08200
C719        C  0.42387203  0.34623885  0.90536404     0.05300
C720        C  0.42346574  0.31305630  0.87297855    -0.03200
Br721      Br  0.42384887  0.24467680  0.87968780    -0.02900
H722        H  0.42406075  0.30344255  0.80908325     0.09200
H723        H  0.42159467  0.42131451  0.92065349     0.07300
Br724      Br  0.41896790  0.47948718  0.84934824    -0.03400
C725        C  0.31851376  0.39855151  0.84090044    -0.10000
C726        C  0.31824032  0.34944147  0.83200849     0.06200
C727        C  0.32059102  0.31658116  0.86409659    -0.03800
C728        C  0.32081930  0.33310948  0.90399895    -0.08200
C729        C  0.31889749  0.38203887  0.91297113     0.05300
C730        C  0.31889273  0.41510543  0.88060558    -0.03200
Br731      Br  0.31874295  0.48354255  0.88729536    -0.02900
H732        H  0.31734394  0.42461873  0.81689794     0.09200
H733        H  0.32147182  0.30711096  0.92814452     0.07300
Br734      Br  0.32324269  0.24872141  0.85630990    -0.03400
C735        C  0.35376687  0.39773312  0.67578618    -0.10000
C736        C  0.35001621  0.34823325  0.67305471     0.06200
C737        C  0.36520968  0.31718919  0.66455143    -0.03800
C738        C  0.38386132  0.33527906  0.66261957    -0.08200
C739        C  0.38783686  0.38431384  0.66936231     0.05300
C740        C  0.37234879  0.41589144  0.67403658    -0.03200
Br741      Br  0.37543325  0.48400883  0.67873146    -0.02900
H742        H  0.34222458  0.42254675  0.68144466     0.09200
H743        H  0.39538894  0.31016284  0.65798997     0.07300
Br744      Br  0.36120673  0.25021062  0.65493250    -0.03400
C745        C  0.24265196  0.26565230  0.03352296    -0.10000
C746        C  0.25266659  0.28685236  0.00165689     0.06200
C747        C  0.25726215  0.25927695  0.96725502    -0.03800
C748        C  0.25184145  0.21134106  0.96539083    -0.08200
C749        C  0.24166284  0.19024806  0.99712150     0.05300
C750        C  0.23718938  0.21778398  0.03163375    -0.03200
Br751      Br  0.22377531  0.19207050  0.07736426    -0.02900
H752        H  0.23978625  0.28577309  0.06084411     0.09200
H753        H  0.25468214  0.19129281  0.93802008     0.07300
Br754      Br  0.27029181  0.28547008  0.92122040    -0.03400
C755        C  0.24779768  0.13359035  0.84078669    -0.10000
C756        C  0.22991724  0.15067456  0.85357915     0.06200
C757        C  0.22347629  0.19468056  0.83813717    -0.03800
C758        C  0.23476132  0.22017575  0.81063141    -0.08200
C759        C  0.25276472  0.20335182  0.79784224     0.05300
C760        C  0.25924373  0.15928776  0.81368489    -0.03200
Br761      Br  0.28346488  0.13133738  0.80052283    -0.02900
H762        H  0.25326849  0.10038674  0.85292598     0.09200
H763        H  0.22926570  0.25369299  0.79922090     0.07300
Br764      Br  0.19914131  0.22129951  0.85210235    -0.03400
C765        C  0.11535019  0.16859335  0.93101997    -0.10000
C766        C  0.10009018  0.13661930  0.92683835     0.06200
C767        C  0.10426541  0.08683221  0.92358197    -0.03800
C768        C  0.12314130  0.07060800  0.92620023    -0.08200
C769        C  0.13827409  0.10262149  0.93156559     0.05300
C770        C  0.13417131  0.15237379  0.93342507    -0.03200
Br771      Br  0.15313952  0.20065859  0.94381944    -0.02900
H772        H  0.11259142  0.20656465  0.93408352     0.09200
H773        H  0.12597176  0.03253040  0.92493496     0.07300
Br774      Br  0.08518146  0.03757404  0.91905783    -0.03400
C775        C  0.26427644  0.28108801  0.14469929    -0.10000
C776        C  0.26400703  0.33149745  0.14638409     0.06200
C777        C  0.25280926  0.35338069  0.17692408    -0.03800
C778        C  0.24126823  0.32540420  0.20223063    -0.08200
C779        C  0.24110928  0.27532710  0.19947017     0.05300
C780        C  0.25329180  0.25313619  0.17112137    -0.03200
Br781      Br  0.25497942  0.18479215  0.16564047    -0.02900
H782        H  0.27266422  0.26300185  0.12188544     0.09200
H783        H  0.23270811  0.34296054  0.22508392     0.07300
Br784      Br  0.25306747  0.42088010  0.18770879    -0.03400
C785        C  0.16974484  0.14837124  0.09464369    -0.10000
C786        C  0.17318538  0.09997811  0.08557316     0.06200
C787        C  0.17424398  0.06705700  0.11812021    -0.03800
C788        C  0.17423275  0.08377766  0.15793469    -0.08200
C789        C  0.17293237  0.13276007  0.16664880     0.05300
C790        C  0.16943813  0.16483712  0.13454937    -0.03200
Br791      Br  0.16418290  0.23161380  0.14282318    -0.02900
H792        H  0.16809412  0.17417265  0.07057145     0.09200
H793        H  0.17638658  0.05835634  0.18212958     0.07300
Br794      Br  0.17643130  0.99883570  0.11166889    -0.03400
C795        C  0.06993923  0.09881207  0.08797449    -0.10000
C796        C  0.06333242  0.14496571  0.07865829     0.06200
C797        C  0.05885754  0.17656052  0.11093908    -0.03800
C798        C  0.06032434  0.16085952  0.15069123    -0.08200
C799        C  0.06555440  0.11377181  0.15964833     0.05300
C800        C  0.07092869  0.08292175  0.12787795    -0.03200
Br801      Br  0.07946763  0.01852342  0.13672430    -0.02900
H802        H  0.07369160  0.07410061  0.06405746     0.09200
H803        H  0.05594137  0.18480641  0.17471641     0.07300
Br804      Br  0.04881190  0.24015848  0.10458184    -0.03400
C805        C  0.12332912  0.17825371  0.31187628    -0.10000
C806        C  0.13862400  0.14635332  0.31462187     0.06200
C807        C  0.13457597  0.09652431  0.31685892    -0.03800
C808        C  0.11571861  0.08001006  0.31579958    -0.08200
C809        C  0.10045373  0.11181892  0.31253071     0.05300
C810        C  0.10444717  0.16168517  0.31088031    -0.03200
Br811      Br  0.08512555  0.20936889  0.30262347    -0.02900
H812        H  0.12609452  0.21628145  0.30921849     0.09200
H813        H  0.11299878  0.04182631  0.31620031     0.07300
Br814      Br  0.15392979  0.04789460  0.31663889    -0.03400
C815        C  0.98025147  0.16799586  0.43344110    -0.10000
C816        C  0.98544108  0.21585521  0.44029563     0.06200
C817        C  0.00137264  0.23442550  0.41918428    -0.03800
C818        C  0.01193063  0.20497969  0.39329488    -0.08200
C819        C  0.00690744  0.15688790  0.38651389     0.05300
C820        C  0.99056440  0.13870966  0.40680816    -0.03200
Br821      Br  0.98028192  0.07570605  0.39818127    -0.02900
H822        H  0.96802121  0.15306418  0.44895344     0.09200
H823        H  0.02391178  0.22053433  0.37737161     0.07300
Br824      Br  0.00885259  0.30064830  0.42141110    -0.03400
C825        C  0.85450076  0.34465830  0.56955962    -0.10000
C826        C  0.85082831  0.39413690  0.56601598     0.06200
C827        C  0.86635941  0.42608675  0.56637687    -0.03800
C828        C  0.88497643  0.40807917  0.56695519    -0.08200
C829        C  0.88856577  0.35837221  0.56650158     0.05300
C830        C  0.87306940  0.32670418  0.56942458    -0.03200
Br831      Br  0.87631689  0.25869197  0.57258259    -0.02900
H832        H  0.84284639  0.31918684  0.56992723     0.09200
H833        H  0.89670662  0.43325986  0.56520703     0.07300
Br834      Br  0.86312565  0.49428856  0.56551038    -0.03400
C835        C  0.92474908  0.42876661  0.35738156    -0.10000
C836        C  0.92275974  0.39407067  0.32681895     0.06200
C837        C  0.91791730  0.34675654  0.33821134    -0.03800
C838        C  0.91769173  0.33425810  0.37904519    -0.08200
C839        C  0.92171829  0.36803324  0.40933148     0.05300
C840        C  0.92415279  0.41645662  0.39815720    -0.03200
Br841      Br  0.92852592  0.46756687  0.43599502    -0.02900
H842        H  0.92779537  0.46566087  0.34970437     0.09200
H843        H  0.91506902  0.29725250  0.38707290     0.07300
Br844      Br  0.91203928  0.29647923  0.30052616    -0.03400
C845        C  0.98196476  0.26953687  0.26799335    -0.10000
C846        C  0.99068485  0.29930310  0.23898708     0.06200
C847        C  0.00403113  0.27902331  0.21222307    -0.03800
C848        C  0.00801847  0.23023771  0.21454384    -0.08200
C849        C  0.99933489  0.20049836  0.24366354     0.05300
C850        C  0.98588266  0.22073621  0.27017610    -0.03200
Br851      Br  0.97232921  0.18496006  0.31045918    -0.02900
H852        H  0.97145252  0.28400998  0.28861328     0.09200
H853        H  0.01856110  0.21572344  0.19400650     0.07300
Br854      Br  0.01729654  0.31476407  0.17140997    -0.03400
C855        C  0.98714839  0.26663719  0.05975526    -0.10000
C856        C  0.00178534  0.28873625  0.03746298     0.06200
C857        C  0.00515822  0.33804233  0.04367910    -0.03800
C858        C  0.99436162  0.36342496  0.07219596    -0.08200
C859        C  0.98001990  0.34104629  0.09535893     0.05300
C860        C  0.97635144  0.29186366  0.08826004    -0.03200
Br861      Br  0.95687279  0.25590871  0.11565098    -0.02900
H862        H  0.98413062  0.22895306  0.05530531     0.09200
H863        H  0.99757115  0.40097131  0.07675510     0.07300
Br864      Br  0.02367977  0.37371970  0.01334656    -0.03400
C865        C  0.81619028  0.40290205  0.33446056    -0.10000
C866        C  0.81710438  0.35366509  0.32622091     0.06200
C867        C  0.81991031  0.32185751  0.35880326    -0.03800
C868        C  0.81974797  0.33916654  0.39848637    -0.08200
C869        C  0.81698496  0.38803427  0.40694471     0.05300
C870        C  0.81616561  0.42033842  0.37403166    -0.03200
Br871      Br  0.81442579  0.48871924  0.37974784    -0.02900
H872        H  0.81447086  0.42817396  0.31000214     0.09200
H873        H  0.82097023  0.31367562  0.42290566     0.07300
Br874      Br  0.82406269  0.25440621  0.35172216    -0.03400
C875        C  0.86740181  0.32022540  0.17237898    -0.10000
C876        C  0.85181241  0.35108671  0.17520803     0.06200
C877        C  0.85532217  0.40120371  0.17676384    -0.03800
C878        C  0.87401305  0.41894062  0.17668342    -0.08200
C879        C  0.88967278  0.38814057  0.17468750     0.05300
C880        C  0.88612132  0.33795653  0.17172325    -0.03200
Br881      Br  0.90581589  0.29016997  0.17017016    -0.02900
H882        H  0.86502793  0.28190574  0.17151646     0.09200
H883        H  0.87631410  0.45716485  0.17940277     0.07300
Br884      Br  0.83552014  0.44809489  0.18324744    -0.03400
C885        C  0.46977272  0.62312294  0.58359000    -0.10000
C886        C  0.45651710  0.65850876  0.59446539     0.06200
C887        C  0.44285357  0.64798905  0.62430154    -0.03800
C888        C  0.44259256  0.60288547  0.64253810    -0.08200
C889        C  0.45575191  0.56717243  0.63165400     0.05300
C890        C  0.46942007  0.57768903  0.60157199    -0.03200
Br891      Br  0.48702780  0.53076937  0.58153479    -0.02900
H892        H  0.48003702  0.63027993  0.55990479     0.09200
H893        H  0.43221393  0.59609895  0.66606295     0.07300
Br894      Br  0.42480281  0.69470657  0.64277377    -0.03400
C895        C  0.26764323  0.09841510  0.60248859    -0.10000
C896        C  0.28335683  0.06784326  0.60723882     0.06200
C897        C  0.29873434  0.08314129  0.63132187    -0.03800
C898        C  0.29841462  0.12865002  0.64889902    -0.08200
C899        C  0.28289627  0.15991255  0.64349078     0.05300
C900        C  0.26724469  0.14393384  0.62020166    -0.03200
Br901      Br  0.24522132  0.18253799  0.60937975    -0.02900
H902        H  0.25577507  0.08747069  0.58371719     0.09200
H903        H  0.31034144  0.13919589  0.66764174     0.07300
Br904      Br  0.32010083  0.04275300  0.64331688    -0.03400
C905        C  0.22218295  0.04859227  0.41240383    -0.10000
C906        C  0.22937083  0.09338691  0.40067732     0.06200
C907        C  0.24670983  0.10911020  0.41856307    -0.03800
C908        C  0.25677929  0.07903370  0.44487106    -0.08200
C909        C  0.25000259  0.03332679  0.45519025     0.05300
C910        C  0.23201970  0.01897258  0.43938823    -0.03200
Br911      Br  0.21975128  0.95901749  0.45147927    -0.02900
H912        H  0.20891010  0.03574017  0.39968624     0.09200
H913        H  0.27015613  0.09166023  0.45724153     0.07300
Br914      Br  0.25842375  0.17002179  0.40768355    -0.03400
C915        C  0.35422145  0.83195095  0.56505998    -0.10000
C916        C  0.35099886  0.88186854  0.56205606     0.06200
C917        C  0.36699092  0.91238681  0.56161002    -0.03800
C918        C  0.38540810  0.89291852  0.56093621    -0.08200
C919        C  0.38853278  0.84299742  0.56065017     0.05300
C920        C  0.37267272  0.81253723  0.56433034    -0.03200
Br921      Br  0.37544167  0.74452025  0.56950329    -0.02900
H922        H  0.34228542  0.80737317  0.56632524     0.09200
H923        H  0.39739824  0.91727886  0.55890738     0.07300
Br924      Br  0.36472836  0.98079035  0.56245187    -0.03400
C925        C  0.47143083  0.12586085  0.08046038    -0.10000
C926        C  0.46035200  0.16343338  0.09601783     0.06200
C927        C  0.44906609  0.15544750  0.13039518    -0.03800
C928        C  0.44875690  0.11020223  0.14828870    -0.08200
C929        C  0.45958904  0.07223956  0.13248795     0.05300
C930        C  0.47107411  0.08042056  0.09825388    -0.03200
Br931      Br  0.48527253  0.03014810  0.07267979    -0.02900
H932        H  0.47983557  0.13140140  0.05341841     0.09200
H933        H  0.44020951  0.10486487  0.17514831     0.07300
Br934      Br  0.43451851  0.20577709  0.15495485    -0.03400
C935        C  0.42360038  0.83676375  0.33280951    -0.10000
C936        C  0.42667751  0.88558094  0.32482416     0.06200
C937        C  0.42652740  0.91797358  0.35784324    -0.03800
C938        C  0.42541725  0.90055836  0.39737266    -0.08200
C939        C  0.42422422  0.85127224  0.40532529     0.05300
C940        C  0.42225222  0.81949907  0.37228877    -0.03200
Br941      Br  0.41782529  0.75196141  0.37826513    -0.02900
H942        H  0.42297518  0.81121552  0.30823255     0.09200
H943        H  0.42648629  0.92582369  0.42209858     0.07300
Br944      Br  0.42812524  0.98636205  0.35224793    -0.03400
C945        C  0.30018608  0.60353578  0.09406402    -0.10000
C946        C  0.28552832  0.57048618  0.10248093     0.06200
C947        C  0.27063591  0.58469810  0.12860732    -0.03800
C948        C  0.27089723  0.63045999  0.14593949    -0.08200
C949        C  0.28575650  0.66289914  0.13796566     0.05300
C950        C  0.30038697  0.64919137  0.11127975    -0.03200
Br951      Br  0.32048669  0.69194254  0.09529696    -0.02900
H952        H  0.31148684  0.59428118  0.07320258     0.09200
H953        H  0.25966823  0.64020941  0.16683344     0.07300
Br954      Br  0.24999170  0.54331211  0.14374749    -0.03400
C955        C  0.25750445  0.96861470  0.27576567    -0.10000
C956        C  0.25032811  0.94138797  0.24335962     0.06200
C957        C  0.23711156  0.96245533  0.21690937    -0.03800
C958        C  0.23181700  0.01000392  0.22268611    -0.08200
C959        C  0.23921752  0.03743541  0.25474251     0.05300
C960        C  0.25222427  0.01615316  0.28151093    -0.03200
Br961      Br  0.26288002  0.04861359  0.32732631    -0.02900
H962        H  0.26782999  0.95316434  0.29622398     0.09200
H963        H  0.22151801  0.02550155  0.20220049     0.07300
Br964      Br  0.22628875  0.92984942  0.17131924    -0.03400
C965        C  0.23319971  0.90570046  0.04955081    -0.10000
C966        C  0.23775668  0.95411198  0.04369469     0.06200
C967        C  0.25384877  0.97298988  0.06415091    -0.03800
C968        C  0.26468027  0.94383573  0.08962190    -0.08200
C969        C  0.25998900  0.89553425  0.09625277     0.05300
C970        C  0.24402099  0.87642772  0.07518167    -0.03200
Br971      Br  0.23530492  0.81143176  0.08024119    -0.02900
H972        H  0.22113164  0.89025152  0.03384058     0.09200
H973        H  0.27656645  0.95988014  0.10551057     0.07300
Br974      Br  0.26138091  0.03917982  0.06150484    -0.03400
C975        C  0.31403908  0.90511901  0.33532648    -0.10000
C976        C  0.31724479  0.85669649  0.32636999     0.06200
C977        C  0.32058968  0.82475325  0.35864471    -0.03800
C978        C  0.31934997  0.84093140  0.39850160    -0.08200
C979        C  0.31463642  0.88863094  0.40767824     0.05300
C980        C  0.31259775  0.92132523  0.37520726    -0.03200
Br981      Br  0.30675292  0.98813186  0.38168993    -0.02900
H982        H  0.31144589  0.93026806  0.31112265     0.09200
H983        H  0.32136683  0.81520409  0.42250003     0.07300
Br984      Br  0.32654652  0.75817838  0.35109702    -0.03400
C985        C  0.36879059  0.81860896  0.17355989    -0.10000
C986        C  0.35353519  0.85075891  0.17326218     0.06200
C987        C  0.35767955  0.90059693  0.17193371    -0.03800
C988        C  0.37661913  0.91681735  0.17227795    -0.08200
C989        C  0.39185996  0.88465096  0.17353469     0.05300
C990        C  0.38771101  0.83476255  0.17357764    -0.03200
Br991      Br  0.40685305  0.78584347  0.17808029    -0.02900
H992        H  0.36598217  0.78051127  0.17515608     0.09200
H993        H  0.37943328  0.95495596  0.17272026     0.07300
Br994      Br  0.33842258  0.94937406  0.17387397    -0.03400
C995        C  0.48756687  0.75926930  0.05367171    -0.10000
C996        C  0.50258478  0.78034182  0.03182639     0.06200
C997        C  0.50643152  0.82942556  0.03814404    -0.03800
C998        C  0.49588034  0.85545814  0.06666897    -0.08200
C999        C  0.48131321  0.83396709  0.08979021     0.05300
C1000       C  0.47701639  0.78515619  0.08224360    -0.03200
Br1001     Br  0.45703895  0.75060154  0.10929550    -0.02900
H1002       H  0.48413311  0.72184779  0.04899193     0.09200
H1003       H  0.49952556  0.89272405  0.07141604     0.07300
Br1004     Br  0.52535681  0.86392828  0.00795232    -0.03400
C1005       C  0.49112754  0.51603883  0.95025127    -0.10000
C1006       C  0.49929535  0.53941322  0.98353207     0.06200
C1007       C  0.50397733  0.51265231  0.01822083    -0.03800
C1008       C  0.50042231  0.46373217  0.01920106    -0.08200
C1009       C  0.49198247  0.44055698  0.98633003     0.05300
C1010       C  0.48753244  0.46689896  0.95133155    -0.03200
Br1011     Br  0.47695874  0.43712554  0.90401250    -0.02900
H1012       H  0.48837898  0.53550315  0.92263403     0.09200
H1013       H  0.50324272  0.44429283  0.04681342     0.07300
Br1014     Br  0.51511763  0.54084312  0.06559071    -0.03400
C1015       C  0.50095717  0.50228542  0.81014055    -0.10000
C1016       C  0.48780972  0.52578402  0.78521206     0.06200
C1017       C  0.48638109  0.57599698  0.78792318    -0.03800
C1018       C  0.49752842  0.60125600  0.81591885    -0.08200
C1019       C  0.51033607  0.57774486  0.84198055     0.05300
C1020       C  0.51210007  0.52731208  0.83824150    -0.03200
Br1021     Br  0.52915002  0.48907874  0.87005549    -0.02900
H1022       H  0.50243256  0.46375512  0.80811815     0.09200
H1023       H  0.49584557  0.63971747  0.81762873     0.07300
Br1024     Br  0.47022879  0.61251331  0.75287320    -0.03400
C1025       C  0.62462211  0.56361197  0.92051662    -0.10000
C1026       C  0.63962172  0.59668471  0.92061143     0.06200
C1027       C  0.63517731  0.64625834  0.91971355    -0.03800
C1028       C  0.61616578  0.66135712  0.91980204    -0.08200
C1029       C  0.60115810  0.62833674  0.92098606     0.05300
C1030       C  0.60560548  0.57867433  0.92079084    -0.03200
Br1031     Br  0.58683945  0.52867021  0.92573569    -0.02900
H1032       H  0.62770879  0.52567288  0.92195795     0.09200
H1033       H  0.61311003  0.69934098  0.92058125     0.07300
Br1034     Br  0.65404011  0.69610908  0.92338086    -0.03400
C1035       C  0.75341607  0.47539394  0.06083442    -0.10000
C1036       C  0.73780656  0.45426868  0.04091469     0.06200
C1037       C  0.73408623  0.40522278  0.04785518    -0.03800
C1038       C  0.74551283  0.37928702  0.07474027    -0.08200
C1039       C  0.76086068  0.40075156  0.09546553     0.05300
C1040       C  0.76487312  0.44954037  0.08757126    -0.03200
Br1041     Br  0.78582243  0.48395388  0.11127231    -0.02900
H1042       H  0.75678383  0.51275588  0.05575395     0.09200
H1043       H  0.74201005  0.34205700  0.08003855     0.07300
Br1044     Br  0.71416442  0.37044783  0.02090403    -0.03400
C1045       C  0.51003422  0.72040174  0.20799040    -0.10000
C1046       C  0.50212214  0.69211594  0.23896827     0.06200
C1047       C  0.48920959  0.71324037  0.26614021    -0.03800
C1048       C  0.48527793  0.76185499  0.26310921    -0.08200
C1049       C  0.49339483  0.79045264  0.23259335     0.05300
C1050       C  0.50594935  0.76904156  0.20469476    -0.03200
Br1051     Br  0.51798627  0.80285684  0.16112445    -0.02900
H1052       H  0.52010180  0.70490084  0.18688994     0.09200
H1053       H  0.47531904  0.77718966  0.28450801     0.07300
Br1054     Br  0.47671827  0.67917747  0.30898765    -0.03400
C1055       C  0.50390883  0.72112709  0.42167158    -0.10000
C1056       C  0.48794582  0.70000515  0.44041126     0.06200
C1057       C  0.48413039  0.65126050  0.43209369    -0.03800
C1058       C  0.49566068  0.62582675  0.40481145    -0.08200
C1059       C  0.51128193  0.64742439  0.38505406     0.05300
C1060       C  0.51550355  0.69571958  0.39461949    -0.03200
Br1061     Br  0.53700165  0.72981772  0.37291747    -0.02900
H1062       H  0.50745611  0.75814684  0.42794639     0.09200
H1063       H  0.49201507  0.58891347  0.39839537     0.07300
Br1064     Br  0.46396693  0.61618432  0.45786812    -0.03400
C1065       C  0.50583359  0.40563627  0.18882077    -0.10000
C1066       C  0.50472963  0.45570087  0.18823252     0.06200
C1067       C  0.49203238  0.47759094  0.16087594    -0.03800
C1068       C  0.48163668  0.44956836  0.13352438    -0.08200
C1069       C  0.48298019  0.39927629  0.13330025     0.05300
C1070       C  0.49485853  0.37737518  0.16260100    -0.03200
Br1071     Br  0.49645357  0.30933882  0.17045993    -0.02900
H1072       H  0.51488161  0.38822308  0.21078401     0.09200
H1073       H  0.47269762  0.46760378  0.11175035     0.07300
Br1074     Br  0.48863145  0.54580737  0.15830287    -0.03400
C1075       C  0.56651590  0.65139413  0.14644241    -0.10000
C1076       C  0.56914276  0.60281452  0.15523201     0.06200
C1077       C  0.57264878  0.57074523  0.12307500    -0.03800
C1078       C  0.57129612  0.58663416  0.08320252    -0.08200
C1079       C  0.56665830  0.63439090  0.07422525     0.05300
C1080       C  0.56528762  0.66751992  0.10665879    -0.03200
Br1081     Br  0.56080077  0.73500703  0.10032930    -0.02900
H1082       H  0.56415211  0.67678135  0.17067539     0.09200
H1083       H  0.57313840  0.56077991  0.05913860     0.07300
Br1084     Br  0.57920016  0.50472522  0.13124060    -0.03400
C1085       C  0.66926303  0.58975839  0.14596644    -0.10000
C1086       C  0.67419580  0.63748671  0.15477863     0.06200
C1087       C  0.67628758  0.66999088  0.12218894    -0.03800
C1088       C  0.67551651  0.65317674  0.08254953    -0.08200
C1089       C  0.67263792  0.60454658  0.07404168     0.05300
C1090       C  0.66836874  0.57320055  0.10616523    -0.03200
Br1091     Br  0.66125288  0.50748101  0.09793949    -0.02900
H1092       H  0.66685162  0.56443496  0.17013677     0.09200
H1093       H  0.67843561  0.67805027  0.05827112     0.07300
Br1094     Br  0.68123619  0.73744462  0.12810459    -0.03400
C1095       C  0.60587206  0.64560040  0.31178450    -0.10000
C1096       C  0.60284066  0.59566011  0.31070778     0.06200
C1097       C  0.61869589  0.56516531  0.31241740    -0.03800
C1098       C  0.63705792  0.58474624  0.31284510    -0.08200
C1099       C  0.64012740  0.63467992  0.31066730     0.05300
C1100       C  0.62422792  0.66520805  0.31131343    -0.03200
Br1101     Br  0.62652996  0.73367534  0.31093157    -0.02900
H1102       H  0.59386652  0.66985612  0.31063644     0.09200
H1103       H  0.64902972  0.56035276  0.31261326     0.07300
Br1104     Br  0.61619914  0.49677759  0.31383167    -0.03400
C1105       C  0.74505992  0.60414362  0.40779962    -0.10000
C1106       C  0.72995633  0.58232852  0.38661270     0.06200
C1107       C  0.72548485  0.53411102  0.39564293    -0.03800
C1108       C  0.73630110  0.50904854  0.42413492    -0.08200
C1109       C  0.75173561  0.53054487  0.44442372     0.05300
C1110       C  0.75587810  0.57908612  0.43620232    -0.03200
Br1111     Br  0.77564805  0.61454410  0.46308538    -0.02900
H1112       H  0.74889181  0.64098445  0.40166387     0.09200
H1113       H  0.73265580  0.47204832  0.43013854     0.07300
Br1114     Br  0.70469835  0.49986376  0.37122146    -0.03400
C1115       C  0.74244396  0.46736695  0.20486801    -0.10000
C1116       C  0.75044585  0.44399925  0.23813913     0.06200
C1117       C  0.75413397  0.47021917  0.27372705    -0.03800
C1118       C  0.74994092  0.51894530  0.27539745    -0.08200
C1119       C  0.74189072  0.54233498  0.24218374     0.05300
C1120       C  0.73821123  0.51610271  0.20654262    -0.03200
Br1121     Br  0.72788880  0.54521632  0.15883702    -0.02900
H1122       H  0.74037037  0.44825913  0.17672153     0.09200
H1123       H  0.75205009  0.53799628  0.30355763     0.07300
Br1124     Br  0.76437269  0.44093470  0.32139963    -0.03400
C1125       C  0.55024715  0.33372182  0.35956916    -0.10000
C1126       C  0.53385850  0.31987001  0.38075960     0.06200
C1127       C  0.51797544  0.35097635  0.38100987    -0.03800
C1128       C  0.51902792  0.39515235  0.36121978    -0.08200
C1129       C  0.53562516  0.40956494  0.34077561     0.05300
C1130       C  0.55128083  0.37748227  0.33946019    -0.03200
Br1131     Br  0.57447423  0.38864905  0.30981215    -0.02900
H1132       H  0.56246893  0.31012306  0.35851566     0.09200
H1133       H  0.50678468  0.41864397  0.36233193     0.07300
Br1134     Br  0.49475906  0.33737673  0.40958568    -0.03400
C1135       C  0.48600249  0.25720731  0.55336803    -0.10000
C1136       C  0.50220673  0.27822910  0.53545795     0.06200
C1137       C  0.50669403  0.32606789  0.54586612    -0.03800
C1138       C  0.49531184  0.35096057  0.57355876    -0.08200
C1139       C  0.47934983  0.32965493  0.59214047     0.05300
C1140       C  0.47470973  0.28201539  0.58137364    -0.03200
Br1141     Br  0.45311288  0.24823075  0.60289873    -0.02900
H1142       H  0.48210385  0.22072279  0.54590971     0.09200
H1143       H  0.49940498  0.38720552  0.58137263     0.07300
Br1144     Br  0.52786354  0.36079423  0.52347386    -0.03400
C1145       C  0.49248421  0.07942589  0.28105113    -0.10000
C1146       C  0.49179691  0.02946011  0.28448101     0.06200
C1147       C  0.50254323  0.00715279  0.31497365    -0.03800
C1148       C  0.51345284  0.03478020  0.34161674    -0.08200
C1149       C  0.51384071  0.08509117  0.33915722     0.05300
C1150       C  0.50342203  0.10729058  0.30765810    -0.03200
Br1151     Br  0.50359708  0.17514076  0.29814543    -0.02900
H1152       H  0.48464554  0.09689749  0.25712246     0.09200
H1153       H  0.52087654  0.01664754  0.36576446     0.07300
Br1154     Br  0.50145709  0.93933044  0.32409396    -0.03400
C1155       C  0.50933722  0.00807144  0.51351722    -0.10000
C1156       C  0.50143749  0.03724071  0.48324469     0.06200
C1157       C  0.48785053  0.01725580  0.45681036    -0.03800
C1158       C  0.48274564  0.96923450  0.46088778    -0.08200
C1159       C  0.49062388  0.94011939  0.49127995     0.14900
C1160       C  0.50427711  0.96007916  0.51751479    -0.03200
Br1161     Br  0.51633073  0.92525516  0.56030694    -0.02900
H1162       H  0.51996701  0.02244331  0.53392690     0.09200
H1163       H  0.47206719  0.95484059  0.44059486     0.07300
Br1164     Br  0.47589258  0.05218835  0.41388772    -0.03400
C1165       C  0.69119406  0.88266439  0.38945908    -0.10000
C1166       C  0.70737156  0.91237375  0.38664329     0.06200
C1167       C  0.72331618  0.89529142  0.36471322    -0.03800
C1168       C  0.72286601  0.84961467  0.34724345    -0.08200
C1169       C  0.70671751  0.82004340  0.35025998     0.05300
C1170       C  0.69069543  0.83724994  0.37161918    -0.03200
Br1171     Br  0.66787184  0.80021046  0.37930938    -0.02900
H1172       H  0.67883798  0.89432057  0.40639366     0.09200
H1173       H  0.73510128  0.83776248  0.32998460     0.07300
Br1174     Br  0.74594093  0.93242694  0.35524326    -0.03400
C1175       C  0.61887055  0.17014915  0.42595922    -0.10000
C1176       C  0.60348206  0.13827619  0.42639567     0.06200
C1177       C  0.60734811  0.08838803  0.42798012    -0.03800
C1178       C  0.62616180  0.07179470  0.42926312    -0.08200
C1179       C  0.64158289  0.10360228  0.42905288     0.05300
C1180       C  0.63771014  0.15357708  0.42717854    -0.03200
Br1181     Br  0.65709239  0.20227261  0.43015787    -0.02900
H1182       H  0.61622392  0.20833506  0.42565690     0.09200
H1183       H  0.62872845  0.03367635  0.43153496     0.07300
Br1184     Br  0.58780626  0.04036567  0.43289453    -0.03400
C1185       C  0.75657763  0.15686838  0.29343578    -0.10000
C1186       C  0.75260604  0.20577775  0.28939851     0.06200
C1187       C  0.73794006  0.22567804  0.31345544    -0.03800
C1188       C  0.72798661  0.19694293  0.34102158    -0.08200
C1189       C  0.73215829  0.14800545  0.34577002     0.05300
C1190       C  0.74662015  0.12799661  0.32088963    -0.03200
Br1191     Br  0.75448756  0.06221858  0.32283941    -0.02900
H1192       H  0.76756825  0.14074410  0.27492510     0.09200
H1193       H  0.71722820  0.21362942  0.35976131     0.07300
Br1194     Br  0.73154791  0.29255287  0.31266630    -0.03400
C1195       C  0.75158096  0.21576573  0.45435499    -0.10000
C1196       C  0.74516203  0.19088022  0.48848443     0.06200
C1197       C  0.74266747  0.21568267  0.52510753    -0.03800
C1198       C  0.74566345  0.26485867  0.52676572    -0.08200
C1199       C  0.75177079  0.28995638  0.49260753     0.05300
C1200       C  0.75503602  0.26495028  0.45624368    -0.03200
Br1201     Br  0.76377060  0.29657746  0.40821772    -0.02900
H1202       H  0.75293516  0.19748533  0.42563325     0.09200
H1203       H  0.74422182  0.28308109  0.55549765     0.07300
Br1204     Br  0.73559114  0.18373546  0.57398136    -0.03400
C1205       C  0.51866592  0.84524707  0.87934227    -0.10000
C1206       C  0.53519714  0.81692545  0.87864219     0.06200
C1207       C  0.55167547  0.83543240  0.85971161    -0.03800
C1208       C  0.55133643  0.88105836  0.84251351    -0.08200
C1209       C  0.53483222  0.90964603  0.84318362     0.05300
C1210       C  0.51829774  0.89098600  0.86210292    -0.03200
Br1211     Br  0.49475571  0.92553096  0.86709075    -0.02900
H1212       H  0.50596591  0.83227316  0.89440802     0.09200
H1213       H  0.56414519  0.89374207  0.82771673     0.07300
Br1214     Br  0.57501166  0.80005301  0.85430215    -0.03400
C1215       C  0.49510385  0.21719888  0.77568179    -0.10000
C1216       C  0.50097030  0.19132737  0.74155066     0.06200
C1217       C  0.50251078  0.21477640  0.70412163    -0.03800
C1218       C  0.49783187  0.26310652  0.70115146    -0.08200
C1219       C  0.49166189  0.28875052  0.73511430     0.05300
C1220       C  0.49054180  0.26566018  0.77274931    -0.03200
Br1221     Br  0.48355906  0.29942353  0.82107069    -0.02900
H1222       H  0.49492887  0.20026695  0.80506662     0.09200
H1223       H  0.49808781  0.28004742  0.67176992     0.07300
Br1224     Br  0.51038155  0.18190697  0.65599880    -0.03400
C1225       C  0.49476346  0.12750890  0.90194567    -0.10000
C1226       C  0.51136231  0.14698349  0.88449430     0.06200
C1227       C  0.51697209  0.19357871  0.89623981    -0.03800
C1228       C  0.50582878  0.21957911  0.92358489    -0.08200
C1229       C  0.48894640  0.20062556  0.94034214     0.05300
C1230       C  0.48360956  0.15351667  0.92938737    -0.03200
Br1231     Br  0.46154455  0.12145029  0.95061622    -0.02900
H1232       H  0.49002397  0.09200155  0.89338951     0.09200
H1233       H  0.51050438  0.25530444  0.93163299     0.07300
Br1234     Br  0.53985701  0.22413784  0.87729191    -0.03400
C1235       C  0.56559427  0.15093745  0.64666415    -0.10000
C1236       C  0.56811055  0.10210996  0.65463336     0.06200
C1237       C  0.57202092  0.07093579  0.62208884    -0.03800
C1238       C  0.57148731  0.08815866  0.58248890    -0.08200
C1239       C  0.56713542  0.13628334  0.57424040     0.05300
C1240       C  0.56505168  0.16832586  0.60726638    -0.03200
Br1241     Br  0.56046276  0.23600741  0.60235611    -0.02900
H1242       H  0.56286166  0.17566024  0.67120919     0.09200
H1243       H  0.57371535  0.06308062  0.55799218     0.07300
Br1244     Br  0.57814477  0.00454926  0.62932759    -0.03400
C1245       C  0.48565018  0.96606160  0.67719095    -0.10000
C1246       C  0.50325476  0.94888889  0.69166451     0.06200
C1247       C  0.50891104  0.90236601  0.67959362    -0.03800
C1248       C  0.49756290  0.87573878  0.65275961    -0.08200
C1249       C  0.48039306  0.89387214  0.63698213     0.05300
C1250       C  0.47429572  0.93933527  0.65051000    -0.03200
Br1251     Br  0.45034378  0.96687931  0.63505624    -0.02900
H1252       H  0.48058072  0.00096206  0.68648541     0.09200
H1253       H  0.50264212  0.84097086  0.64312564     0.07300
Br1254     Br  0.53169600  0.87183278  0.69856879    -0.03400
C1255       C  0.72242098  0.38245084  0.89446298    -0.10000
C1256       C  0.70846362  0.41637207  0.88482196     0.06200
C1257       C  0.69485213  0.40548142  0.85511729    -0.03800
C1258       C  0.69484497  0.36037465  0.83699277    -0.08200
C1259       C  0.70841232  0.32551864  0.84747602     0.05300
C1260       C  0.72258256  0.33742124  0.87603607    -0.03200
Br1261     Br  0.74200711  0.29382116  0.89299146    -0.02900
H1262       H  0.73291310  0.39044242  0.91748531     0.09200
H1263       H  0.68429523  0.35286700  0.81399707     0.07300
Br1264     Br  0.67665143  0.45168816  0.83659430    -0.03400
C1265       C  0.69729684  0.10199669  0.60316072    -0.10000
C1266       C  0.68052312  0.10175238  0.58056082     0.06200
C1267       C  0.66321790  0.11497424  0.59895551    -0.03800
C1268       C  0.66300673  0.12783222  0.64002735    -0.08200
C1269       C  0.68001958  0.12884011  0.66233314     0.05300
C1270       C  0.69728003  0.11672767  0.64319845    -0.03200
Br1271     Br  0.72157056  0.12264336  0.66912897    -0.02900
H1272       H  0.71067723  0.09215619  0.58906456     0.09200
H1273       H  0.64974110  0.13841286  0.65414404     0.07300
Br1274     Br  0.63983054  0.11562307  0.56919918    -0.03400
C1275       C  0.63543947  0.09745622  0.82165166    -0.10000
C1276       C  0.63800370  0.14560424  0.80938813     0.06200
C1277       C  0.62186714  0.17151911  0.79684336    -0.03800
C1278       C  0.60405874  0.14893245  0.79548448    -0.08200
C1279       C  0.60177704  0.10037446  0.80581344     0.05300
C1280       C  0.61761469  0.07477306  0.81958108    -0.03200
Br1281     Br  0.61549765  0.00945607  0.83659501    -0.02900
H1282       H  0.64751235  0.07641395  0.83143319     0.09200
H1283       H  0.59189431  0.16928387  0.78509411     0.07300
Br1284     Br  0.62295505  0.23760745  0.78124270    -0.03400
C1285       C  0.75409591  0.25682623  0.67351515    -0.10000
C1286       C  0.74041255  0.27944808  0.69793556     0.06200
C1287       C  0.73808198  0.32946601  0.69396342    -0.03800
C1288       C  0.74837799  0.35481164  0.66460699    -0.08200
C1289       C  0.76142385  0.33193356  0.63859734     0.05300
C1290       C  0.76457342  0.28220452  0.64434291    -0.03200
Br1291     Br  0.78279118  0.24563705  0.61393969    -0.02900
H1292       H  0.75644307  0.21869604  0.67656419     0.09200
H1293       H  0.74584686  0.39287838  0.66184630     0.07300
Br1294     Br  0.72179142  0.36618870  0.72886270    -0.03400
C1295       C  0.22127889  0.36130733  0.33765984    -0.10000
C1296       C  0.20981966  0.32388143  0.35222145     0.06200
C1297       C  0.19810195  0.33181252  0.38597682    -0.03800
C1298       C  0.19753432  0.37706504  0.40392230    -0.08200
C1299       C  0.20872920  0.41488890  0.38908775     0.05300
C1300       C  0.22084448  0.40661852  0.35582428    -0.03200
Br1301     Br  0.23607855  0.45652340  0.33240511    -0.02900
H1302       H  0.23012299  0.35570019  0.31126151     0.09200
H1303       H  0.18863662  0.38240578  0.43027340     0.07300
Br1304     Br  0.18347071  0.28116049  0.40991523    -0.03400
C1305       C  0.25253664  0.47353959  0.56784620    -0.10000
C1306       C  0.23816236  0.45153571  0.54480944     0.06200
C1307       C  0.23494429  0.40204945  0.55001095    -0.03800
C1308       C  0.24547434  0.37643996  0.57877181    -0.08200
C1309       C  0.25957433  0.39876791  0.60266145     0.05300
C1310       C  0.26326602  0.44804242  0.59606820    -0.03200
Br1311     Br  0.28288716  0.48379590  0.62328146    -0.02900
H1312       H  0.25552313  0.51130905  0.56391432     0.09200
H1313       H  0.24239008  0.33873824  0.58266424     0.07300
Br1314     Br  0.21727754  0.36660643  0.51730564    -0.03400
C1315       C  0.23869154  0.72001272  0.30916629    -0.10000
C1316       C  0.25627493  0.70309670  0.29415405     0.06200
C1317       C  0.26281223  0.65817147  0.30818603    -0.03800
C1318       C  0.25197634  0.63218411  0.33626888    -0.08200
C1319       C  0.23472697  0.64991863  0.35206304     0.05300
C1320       C  0.22804637  0.69427138  0.33769534    -0.03200
Br1321     Br  0.20414892  0.72107583  0.35447136    -0.02900
H1322       H  0.23308360  0.75391728  0.29886233     0.09200
H1323       H  0.25756173  0.59845334  0.34706798     0.07300
Br1324     Br  0.28636229  0.62943013  0.29122975    -0.03400
C1325       C  0.23545770  0.71852616  0.52624061    -0.10000
C1326       C  0.24426964  0.69055489  0.49608441     0.06200
C1327       C  0.25609762  0.71332905  0.46765183    -0.03800
C1328       C  0.25828811  0.76280848  0.46912005    -0.08200
C1329       C  0.24951646  0.79074892  0.49934434     0.05300
C1330       C  0.23761815  0.76801673  0.52766679    -0.03200
Br1331     Br  0.22365389  0.80128856  0.56894093    -0.02900
H1332       H  0.22607911  0.70197971  0.54817618     0.09200
H1333       H  0.26766124  0.77934950  0.44717296     0.07300
Br1334     Br  0.26991493  0.68021209  0.42614611    -0.03400
C1335       C  0.02548094  0.86739601  0.40111510    -0.10000
C1336       C  0.03616331  0.83004693  0.38391865     0.06200
C1337       C  0.04645094  0.83832902  0.34829543    -0.03800
C1338       C  0.04586266  0.88341692  0.33022060    -0.08200
C1339       C  0.03516555  0.92090532  0.34721819     0.05300
C1340       C  0.02503695  0.91277996  0.38322683    -0.03200
Br1341     Br  0.01179188  0.96318817  0.41071421    -0.02900
H1342       H  0.01786765  0.86154093  0.42914269     0.09200
H1343       H  0.05359987  0.88903306  0.30231900     0.07300
Br1344     Br  0.06075132  0.78856480  0.32239241    -0.03400
C1345       C  0.13962727  0.65875731  0.42747380    -0.10000
C1346       C  0.14297819  0.60892064  0.42562732     0.06200
C1347       C  0.12728427  0.57836219  0.41952411    -0.03800
C1348       C  0.10882203  0.59736503  0.41779217    -0.08200
C1349       C  0.10532660  0.64685221  0.42259109     0.05300
C1350       C  0.12112958  0.67775650  0.42623833    -0.03200
Br1351     Br  0.11848015  0.74602819  0.42968770    -0.02900
H1352       H  0.15142938  0.68326603  0.43183696     0.09200
H1353       H  0.09701953  0.57261639  0.41461220     0.07300
Br1354     Br  0.13008625  0.51046236  0.41327984    -0.03400
C1355       C  0.00045292  0.61565154  0.31439519    -0.10000
C1356       C  0.01357439  0.59175901  0.33961661     0.06200
C1357       C  0.01464476  0.54119174  0.33644654    -0.03800
C1358       C  0.00247332  0.51642187  0.31019519    -0.08200
C1359       C  0.98900049  0.54018065  0.28617054     0.05300
C1360       C  0.98834955  0.59057299  0.28792269    -0.03200
Br1361     Br  0.97206991  0.62732103  0.25338735    -0.02900
H1362       H  0.99927613  0.65425796  0.31565372     0.09200
H1363       H  0.00349908  0.47776406  0.30876434     0.07300
Br1364     Br  0.03195747  0.50224869  0.36696336    -0.03400
C1365       C  0.00900477  0.51962876  0.51274429    -0.10000
C1366       C  0.00145588  0.54823980  0.48173635     0.06200
C1367       C  0.98802470  0.52804475  0.45505968    -0.03800
C1368       C  0.98288006  0.48014596  0.45941297    -0.08200
C1369       C  0.99038786  0.45166141  0.49055460     0.05300
C1370       C  0.00386235  0.47183808  0.51708195    -0.03200
Br1371     Br  0.01566004  0.43766212  0.56061152    -0.02900
H1372       H  0.01946623  0.53421238  0.53343946     0.09200
H1373       H  0.97242304  0.46537034  0.43884076     0.07300
Br1374     Br  0.97613350  0.56256382  0.41182110    -0.03400
C1375       C  0.18982854  0.84010464  0.86550920    -0.10000
C1376       C  0.20747406  0.82193220  0.85244345     0.06200
C1377       C  0.22390999  0.85053387  0.85832783    -0.03800
C1378       C  0.22236746  0.89524101  0.87729098    -0.08200
C1379       C  0.20470552  0.91331694  0.89054365     0.05300
C1380       C  0.18821858  0.88497473  0.88393196    -0.03200
Br1381     Br  0.16276218  0.90402466  0.89832384    -0.02900
H1382       H  0.17694098  0.81936630  0.86106941     0.09200
H1383       H  0.23525372  0.91597221  0.88171197     0.07300
Br1384     Br  0.24890351  0.83275112  0.83998986    -0.03400
C1385       C  0.16982256  0.65762639  0.63648337    -0.10000
C1386       C  0.17512967  0.62439572  0.66615934     0.06200
C1387       C  0.17858064  0.57658877  0.65438027    -0.03800
C1388       C  0.17903908  0.56471900  0.61342415    -0.08200
C1389       C  0.17567710  0.59919120  0.58334227     0.05300
C1390       C  0.16968634  0.64534162  0.59552658    -0.03200
Br1391     Br  0.16116972  0.69362605  0.55853279    -0.02900
H1392       H  0.16631276  0.69398367  0.64509437     0.09200
H1393       H  0.18306000  0.52859563  0.60518925     0.07300
Br1394     Br  0.18444963  0.52620469  0.69174547    -0.03400
C1395       C  0.24404503  0.46713950  0.71241173    -0.10000
C1396       C  0.24897244  0.44048196  0.74662193     0.06200
C1397       C  0.25053495  0.46354690  0.78425253    -0.03800
C1398       C  0.24725500  0.51262977  0.78718367    -0.08200
C1399       C  0.24236115  0.53930427  0.75297841     0.05300
C1400       C  0.24084310  0.51626203  0.71530630    -0.03200
Br1401     Br  0.23501042  0.55080226  0.66688371    -0.02900
H1402       H  0.24366450  0.45023163  0.68298021     0.09200
H1403       H  0.24753643  0.52949844  0.81664288     0.07300
Br1404     Br  0.25659582  0.42901481  0.83253351    -0.03400
C1405       C  0.22774971  0.53669600  0.90225481    -0.10000
C1406       C  0.23248756  0.58524184  0.89656961     0.06200
C1407       C  0.24772709  0.60435809  0.91977581    -0.03800
C1408       C  0.25791536  0.57491178  0.94636943    -0.08200
C1409       C  0.25336527  0.52628600  0.95135764     0.05300
C1410       C  0.23784654  0.50744366  0.92908379    -0.03200
Br1411     Br  0.23011596  0.44143884  0.93159028    -0.02900
H1412       H  0.21633157  0.52067934  0.88487843     0.09200
H1413       H  0.26951742  0.59044349  0.96352856     0.07300
Br1414     Br  0.25615625  0.66977209  0.91672605    -0.03400
C1415       C  0.24057931  0.82528318  0.70248430    -0.10000
C1416       C  0.23924601  0.77549137  0.69822529     0.06200
C1417       C  0.24943273  0.75311574  0.66677550    -0.03800
C1418       C  0.26019094  0.78057446  0.63965144    -0.08200
C1419       C  0.26117190  0.83080387  0.64291030     0.05300
C1420       C  0.25154523  0.85291937  0.67576345    -0.03200
Br1421     Br  0.25299095  0.92028180  0.68739718    -0.02900
H1422       H  0.23333491  0.84275225  0.72734165     0.09200
H1423       H  0.26713939  0.76244196  0.61478151     0.07300
Br1424     Br  0.24796567  0.68538850  0.65756640    -0.03400
C1425       C  0.01744977  0.34358931  0.86385001    -0.10000
C1426       C  0.03368694  0.32895562  0.88535485     0.06200
C1427       C  0.04928688  0.36116435  0.88804454    -0.03800
C1428       C  0.04870189  0.40505499  0.86796351    -0.08200
C1429       C  0.03271029  0.41920793  0.84566888     0.05300
C1430       C  0.01676296  0.38809199  0.84432120    -0.03200
Br1431     Br  0.99387260  0.40245794  0.81505886    -0.02900
H1432       H  0.00518917  0.32009356  0.86186078     0.09200
H1433       H  0.06093590  0.42863852  0.87011991     0.07300
Br1434     Br  0.07161762  0.35008424  0.92028078    -0.03400
C1435       C  0.06814384  0.59070118  0.58294331    -0.10000
C1436       C  0.06821112  0.63989372  0.57441535     0.06200
C1437       C  0.07051169  0.67228187  0.60703011    -0.03800
C1438       C  0.07085396  0.65528218  0.64685958    -0.08200
C1439       C  0.06910005  0.60619903  0.65551830     0.05300
C1440       C  0.06864993  0.57363617  0.62258287    -0.03200
Br1441     Br  0.06820641  0.50511510  0.62831555    -0.02900
H1442       H  0.06682185  0.56496387  0.55862370     0.09200
H1443       H  0.07165518  0.68103819  0.67125861     0.07300
Br1444     Br  0.07326425  0.74018389  0.59995194    -0.03400
C1445       C  0.12594222  0.66555749  0.82179659    -0.10000
C1446       C  0.14103347  0.63345468  0.81757722     0.06200
C1447       C  0.13688991  0.58390264  0.81383139    -0.03800
C1448       C  0.11796700  0.56804800  0.81208643    -0.08200
C1449       C  0.10278497  0.60034904  0.81453854     0.05300
C1450       C  0.10700910  0.64972379  0.82082894    -0.03200
Br1451     Br  0.08806964  0.69927636  0.82450432    -0.02900
H1452       H  0.12889362  0.70350805  0.82455228     0.09200
H1453       H  0.11513034  0.53034858  0.80721495     0.07300
Br1454     Br  0.15619478  0.53596408  0.80624658    -0.03400
C1455       C  0.99445456  0.38682930  0.65941300    -0.10000
C1456       C  0.98049796  0.41025603  0.63617032     0.06200
C1457       C  0.97819505  0.46028068  0.64154146    -0.03800
C1458       C  0.99002484  0.48518254  0.66821434    -0.08200
C1459       C  0.00424189  0.46194174  0.69058576     0.05300
C1460       C  0.00619689  0.41192334  0.68635494    -0.03200
Br1461     Br  0.02390982  0.37504723  0.71752380    -0.02900
H1462       H  0.99657578  0.34863843  0.65619123     0.09200
H1463       H  0.98807082  0.52346784  0.67135710     0.07300
Br1464     Br  0.95941627  0.49824353  0.61408803    -0.03400
C1465       C  0.97251759  0.60779069  0.13626136    -0.10000
C1466       C  0.95648377  0.57783355  0.13272064     0.06200
C1467       C  0.94079891  0.59389673  0.10993004    -0.03800
C1468       C  0.94139724  0.63889898  0.09163339    -0.08200
C1469       C  0.95738290  0.66922620  0.09527892     0.05300
C1470       C  0.97309251  0.65304126  0.11817613    -0.03200
Br1471     Br  0.99547384  0.69099880  0.12803158    -0.02900
H1472       H  0.98454302  0.59657975  0.15435984     0.09200
H1473       H  0.92926308  0.64973774  0.07372188     0.07300
Br1474     Br  0.91843033  0.55558500  0.10072557    -0.03400
C1475       C  0.99658116  0.88576982  0.15662255    -0.10000
C1476       C  0.98184868  0.90775045  0.13440612     0.06200
C1477       C  0.97807664  0.95671434  0.14223313    -0.03800
C1478       C  0.98897551  0.98195462  0.17069719    -0.08200
C1479       C  0.00387642  0.96018500  0.19229925     0.05300
C1480       C  0.00747939  0.91116898  0.18511847    -0.03200
Br1481     Br  0.02641511  0.87583404  0.21428843    -0.02900
H1482       H  0.99994152  0.84844399  0.15148922     0.09200
H1483       H  0.98577299  0.01939713  0.17577391     0.07300
Br1484     Br  0.95822445  0.99227191  0.11604648    -0.03400
C1485       C  0.99105460  0.02428367  0.95395917    -0.10000
C1486       C  0.99811409  0.04855591  0.98785480     0.06200
C1487       C  0.00222583  0.02238581  0.02326333    -0.03800
C1488       C  0.99918743  0.97310607  0.02419861    -0.08200
C1489       C  0.99194599  0.94899408  0.99048131     0.05300
C1490       C  0.98810874  0.97489361  0.95491859    -0.03200
Br1491     Br  0.97935368  0.94414502  0.90648853    -0.02900
H1492       H  0.98880619  0.04328457  0.92590278     0.09200
H1493       H  0.00147037  0.95405306  0.05222274     0.07300
Br1494     Br  0.01175524  0.05197041  0.07166806    -0.03400
C1495       C  0.98658009  0.66168214  0.93758839    -0.10000
C1496       C  0.98956390  0.71122149  0.94034983     0.06200
C1497       C  0.00377810  0.73217217  0.91569745    -0.03800
C1498       C  0.01426289  0.70389801  0.88875333    -0.08200
C1499       C  0.01118127  0.65429222  0.88538353     0.05300
C1500       C  0.99723684  0.63311984  0.91101334    -0.03200
Br1501     Br  0.99158947  0.56570619  0.91234073    -0.02900
H1502       H  0.97604954  0.64478196  0.95681345     0.09200
H1503       H  0.02459863  0.72140972  0.86947195     0.07300
Br1504     Br  0.00901417  0.79974537  0.91524933    -0.03400
C1505       C  0.77045646  0.10569246  0.08735088    -0.10000
C1506       C  0.78422827  0.07119440  0.09715411     0.06200
C1507       C  0.79805652  0.08238321  0.12638692    -0.03800
C1508       C  0.79809171  0.12750170  0.14478468    -0.08200
C1509       C  0.78444628  0.16245579  0.13488745     0.05300
C1510       C  0.77047097  0.15099011  0.10569555    -0.03200
Br1511     Br  0.75173828  0.19607455  0.08757028    -0.02900
H1512       H  0.75992613  0.09785281  0.06437360     0.09200
H1513       H  0.80867144  0.13483110  0.16775189     0.07300
Br1514     Br  0.81647413  0.03635670  0.14420211    -0.03400
C1515       C  0.75248272  0.07940855  0.94938564    -0.10000
C1516       C  0.75211276  0.02943745  0.94533968     0.06200
C1517       C  0.73965013  0.00885493  0.91679461    -0.03800
C1518       C  0.72830286  0.03811060  0.89246684    -0.08200
C1519       C  0.72889019  0.08839551  0.89555772     0.05300
C1520       C  0.74093119  0.10880057  0.92534284    -0.03200
Br1521     Br  0.74177930  0.17600664  0.93667377    -0.02900
H1522       H  0.76146095  0.09569123  0.97219514     0.09200
H1523       H  0.71950650  0.02109845  0.86981137     0.07300
Br1524     Br  0.73844117  0.94101856  0.90751722    -0.03400
C1525       C  0.86639329  0.91758686  0.05513830    -0.10000
C1526       C  0.85156426  0.88433164  0.05927485     0.06200
C1527       C  0.85640316  0.83507780  0.06335598    -0.03800
C1528       C  0.87553928  0.82059646  0.06181650    -0.08200
C1529       C  0.89024557  0.85388604  0.05636364     0.05300
C1530       C  0.88544646  0.90305837  0.05338460    -0.03200
Br1531     Br  0.90377570  0.95231726  0.04147344    -0.02900
H1532       H  0.86311057  0.95516373  0.05125096     0.09200
H1533       H  0.87890736  0.78283524  0.06358481     0.07300
Br1534     Br  0.83791987  0.78430487  0.06684483    -0.03400
C1535       C  0.74559962  0.85733124  0.16115780    -0.10000
C1536       C  0.76094824  0.83620198  0.14031350     0.06200
C1537       C  0.76586620  0.78847754  0.14997707    -0.03800
C1538       C  0.75491990  0.76270019  0.17779936    -0.08200
C1539       C  0.73907277  0.78314887  0.19728326     0.05300
C1540       C  0.73481440  0.83164883  0.18945373    -0.03200
Br1541     Br  0.71508858  0.86604508  0.21728030    -0.02900
H1542       H  0.74159410  0.89395439  0.15485178     0.09200
H1543       H  0.75881327  0.72593957  0.18391376     0.07300
Br1544     Br  0.78749131  0.75575637  0.12745751    -0.03400
C1545       C  0.74214215  0.76692681  0.03070129    -0.10000
C1546       C  0.74813749  0.79239388  0.99653674     0.06200
C1547       C  0.74988963  0.76869135  0.95925506    -0.03800
C1548       C  0.74600877  0.71994158  0.95673712    -0.08200
C1549       C  0.74015572  0.69438897  0.99090476     0.05300
C1550       C  0.73815111  0.71814223  0.02811873    -0.03200
Br1551     Br  0.73069814  0.68494006  0.07630757    -0.02900
H1552       H  0.74158041  0.78437467  0.05991506     0.09200
H1553       H  0.74666469  0.70245755  0.92755796     0.07300
Br1554     Br  0.75722322  0.80172660  0.91093871    -0.03400
C1555       C  0.94108357  0.09663533  0.61737354    -0.10000
C1556       C  0.95868305  0.07948204  0.63123338     0.06200
C1557       C  0.97488299  0.10945844  0.62725616    -0.03800
C1558       C  0.97312190  0.15463827  0.60936511    -0.08200
C1559       C  0.95548047  0.17170425  0.59529617     0.05300
C1560       C  0.93925496  0.14183816  0.59993262    -0.03200
Br1561     Br  0.91385904  0.15868480  0.58361501    -0.02900
H1562       H  0.92840456  0.07473406  0.62032181     0.09200
H1563       H  0.98579825  0.17653075  0.60641944     0.07300
Br1564     Br  0.99979984  0.09292943  0.64675915    -0.03400
C1565       C  0.98742597  0.08357577  0.78759106    -0.10000
C1566       C  0.99120102  0.03451839  0.78398866     0.06200
C1567       C  0.00511650  0.01417557  0.80958282    -0.03800
C1568       C  0.01427984  0.04249311  0.83871869    -0.08200
C1569       C  0.01022912  0.09157528  0.84309661     0.05300
C1570       C  0.99679743  0.11218960  0.81617016    -0.03200
Br1571     Br  0.98987585  0.17876515  0.81603050    -0.02900
H1572       H  0.97712819  0.10006358  0.76768547     0.09200
H1573       H  0.02437857  0.02546654  0.85872932     0.07300
Br1574     Br  0.01158532  0.94736396  0.80836807    -0.03400
C1575       C  0.92532053  0.84127110  0.83087285    -0.10000
C1576       C  0.92883285  0.88969407  0.82213597     0.06200
C1577       C  0.92984546  0.92271095  0.85469262    -0.03800
C1578       C  0.92867433  0.90623540  0.89433465    -0.08200
C1579       C  0.92677410  0.85735227  0.90296472     0.05300
C1580       C  0.92432057  0.82488945  0.87060787    -0.03200
Br1581     Br  0.91976394  0.75761483  0.87791948    -0.02900
H1582       H  0.92408554  0.81534399  0.80668398     0.09200
H1583       H  0.93045180  0.93182148  0.91864927     0.07300
Br1584     Br  0.93383567  0.99058714  0.84885121    -0.03400
C1585       C  0.97633818  0.79855675  0.57713782    -0.10000
C1586       C  0.98279069  0.84478363  0.58673104     0.06200
C1587       C  0.99940479  0.86218606  0.56716956    -0.03800
C1588       C  0.00930663  0.83288414  0.54016932    -0.08200
C1589       C  0.00325944  0.78603415  0.53174730     0.05300
C1590       C  0.98626995  0.76922645  0.55014447    -0.03200
Br1591     Br  0.97609289  0.70588310  0.54245223    -0.02900
H1592       H  0.96372392  0.78436303  0.59173954     0.09200
H1593       H  0.02205158  0.84690342  0.52595806     0.07300
Br1594     Br  0.01062164  0.92395859  0.57723114    -0.03400
C1595       C  0.00349328  0.77403414  0.69804051    -0.10000
C1596       C  0.99641384  0.80012959  0.73094392     0.06200
C1597       C  0.99352078  0.77685086  0.76817743    -0.03800
C1598       C  0.99709376  0.72801914  0.77166479    -0.08200
C1599       C  0.00390542  0.70173715  0.73869989     0.05300
C1600       C  0.00731012  0.72518787  0.70169921    -0.03200
Br1601     Br  0.01664693  0.69167187  0.65503656    -0.02900
H1602       H  0.00506619  0.79099979  0.66884765     0.09200
H1603       H  0.99543957  0.71104360  0.80083475     0.07300
Br1604     Br  0.98478564  0.81042744  0.81532076    -0.03400
C1605       C  0.79692549  0.58070534  0.62661040    -0.10000
C1606       C  0.78133257  0.57010867  0.60177059     0.06200
C1607       C  0.76661404  0.60426783  0.59808190    -0.03800
C1608       C  0.76814479  0.64849796  0.61794433    -0.08200
C1609       C  0.78411890  0.65973382  0.64176947     0.05300
C1610       C  0.79836684  0.62440007  0.64686925    -0.03200
Br1611     Br  0.81982419  0.63129779  0.68248101    -0.02900
H1612       H  0.80819055  0.55462115  0.63030653     0.09200
H1613       H  0.75692103  0.67462008  0.61403094     0.07300
Br1614     Br  0.74473855  0.59448072  0.56428709    -0.03400
C1615       C  0.76405092  0.94761588  0.59431677    -0.10000
C1616       C  0.76197151  0.89747817  0.59569066     0.06200
C1617       C  0.74854771  0.87603968  0.56899900    -0.03800
C1618       C  0.73785110  0.90451824  0.54248666    -0.08200
C1619       C  0.74003584  0.95440784  0.54139754     0.05300
C1620       C  0.75326228  0.97588612  0.56799997    -0.03200
Br1621     Br  0.75620003  0.04411597  0.57243330    -0.02900
H1622       H  0.77370722  0.96551745  0.61487241     0.09200
H1623       H  0.72788300  0.88735828  0.52211294     0.07300
Br1624     Br  0.74362359  0.80836924  0.56638288    -0.03400
C1625       C  0.73618665  0.94865616  0.75473662    -0.10000
C1626       C  0.75446994  0.94691176  0.73858333     0.06200
C1627       C  0.76470628  0.98990348  0.73152937    -0.03800
C1628       C  0.75656887  0.03378742  0.74124263    -0.08200
C1629       C  0.73825014  0.03560569  0.75724128     0.05300
C1630       C  0.72802334  0.99252398  0.76440806    -0.03200
Br1631     Br  0.70317818  0.99039095  0.78896059    -0.02900
H1632       H  0.72843409  0.91582621  0.76069120     0.09200
H1633       H  0.76430430  0.06657833  0.73506813     0.07300
Br1634     Br  0.78938092  0.99171115  0.70633065    -0.03400
C1635       C  0.81942095  0.81717212  0.85581017    -0.10000
C1636       C  0.82060913  0.85223855  0.82546809     0.06200
C1637       C  0.82299123  0.90052065  0.83731442    -0.03800
C1638       C  0.82156103  0.91292628  0.87816001    -0.08200
C1639       C  0.81802038  0.87821941  0.90796451     0.05300
C1640       C  0.81801862  0.82942682  0.89649838    -0.03200
Br1641     Br  0.81415473  0.77702426  0.93324177    -0.02900
H1642       H  0.81829055  0.77965967  0.84782873     0.09200
H1643       H  0.82240504  0.95040073  0.88641662     0.07300
Br1644     Br  0.82719318  0.95199034  0.79999527    -0.03400
C1645       C  0.85770904  0.89606773  0.66967787    -0.10000
C1646       C  0.85479437  0.84603680  0.67206525     0.06200
C1647       C  0.87093025  0.81623052  0.67211437    -0.03800
C1648       C  0.88927266  0.83651347  0.67123358    -0.08200
C1649       C  0.89217452  0.88664290  0.67105333     0.05300
C1650       C  0.87604045  0.91636647  0.66951136    -0.03200
Br1651     Br  0.87809759  0.98476693  0.66675064    -0.02900
H1652       H  0.84559448  0.92001211  0.66963551     0.09200
H1653       H  0.90139657  0.81264600  0.67241027     0.07300
Br1654     Br  0.86884886  0.74775583  0.67303252    -0.03400
C1655       C  0.75894194  0.65963906  0.79892112    -0.10000
C1656       C  0.75460761  0.70821921  0.79336865     0.06200
C1657       C  0.73890810  0.72737093  0.81502415    -0.03800
C1658       C  0.72835540  0.69839223  0.84146671    -0.08200
C1659       C  0.73275776  0.64980593  0.84738989     0.05300
C1660       C  0.74829716  0.63047927  0.82513400    -0.03200
Br1661     Br  0.75651035  0.56501077  0.82881372    -0.02900
H1662       H  0.77065409  0.64383489  0.78231453     0.09200
H1663       H  0.71678022  0.71458329  0.85822388     0.07300
Br1664     Br  0.73131575  0.79338313  0.81195196    -0.03400
loop_ 
_geom_bond_atom_site_label_1 
_geom_bond_atom_site_label_2 
_geom_bond_distance 
_geom_bond_site_symmetry_2 
_ccdc_geom_bond_type 
Fe1          O17   2.031       .  S
Fe1           O7   2.131       .  S
Fe1          O14   2.145       .  S
Fe1           O6   2.045       .  S
Fe1          O12   1.923       .  S
Fe2           O5   2.004       .  S
Fe2           O9   2.105       .  S
Fe2          O13   2.029       .  S
Fe2          O18   2.121       .  S
Fe2          O12   1.920       .  S
Fe3          O21   2.114       .  S
Fe3           O8   2.050       .  S
Fe3          O15   2.046       .  S
Fe3           O4   2.111       .  S
Fe3          O12   1.936       .  S
O4           C11   1.281       .  A
O5           C19   1.253       .  A
O6           C11   1.270       .  A
O7           C10   1.284       .  A
O8           C20   1.267       .  A
O9           C22   1.275       .  A
C10          O15   1.266       .  A
C10        C1656   1.501       .  S
C11        C1609   1.488       .  S
O13          C16   1.264       .  A
O14          C16   1.286       .  A
C16        C1646   1.497       .  S
O17          C22   1.266       .  A
O18          C20   1.282       .  A
C19          O21   1.277       .  A
C19        C1626   1.458       .  S
C20        C1616   1.504       .  S
C22        C1636   1.490       .  S
Fe23         O39   2.031       .  S
Fe23         O29   2.120   1_565  S
Fe23         O36   2.142       .  S
Fe23         O28   2.047   1_565  S
Fe23         O34   1.917       .  S
Fe24         O27   2.010       .  S
Fe24         O31   2.095       .  S
Fe24         O35   2.031       .  S
Fe24         O40   2.111       .  S
Fe24         O34   1.918       .  S
Fe25         O43   2.115       .  S
Fe25         O30   2.041       .  S
Fe25         O37   2.048       .  S
Fe25         O26   2.101   1_565  S
Fe25         O34   1.935       .  S
O26          C33   1.277       .  A
O27          C41   1.254       .  A
O28          C33   1.272       .  A
O29          C32   1.283       .  A
O30          C42   1.266       .  A
O31          C44   1.275       .  A
C32          O37   1.268   1_545  A
C32        C1566   1.491       .  S
C33        C1556   1.491       .  S
O35          C38   1.265       .  A
O36          C38   1.286       .  A
C38        C1649   1.497       .  S
O39          C44   1.261       .  A
O40          C42   1.281       .  A
C41          O43   1.275       .  A
C41        C1596   1.463       .  S
C42        C1586   1.488       .  S
C44        C1576   1.487       .  S
Fe45         O61   2.056   1_554  S
Fe45         O51   2.120   1_564  S
Fe45         O58   2.132       .  S
Fe45         O50   2.058   1_565  S
Fe45         O56   1.924       .  S
Fe46         O49   2.018   1_554  S
Fe46         O53   2.085   1_554  S
Fe46         O57   2.032       .  S
Fe46         O62   2.099       .  S
Fe46         O56   1.920       .  S
Fe47         O65   2.100       .  S
Fe47         O52   2.057       .  S
Fe47         O59   2.047   1_554  S
Fe47         O48   2.098   1_565  S
Fe47         O56   1.937       .  S
O48          C55   1.278       .  A
O49          C63   1.257   1_556  A
O50          C55   1.273       .  A
O51          C54   1.281   1_545  A
O52          C64   1.271       .  A
O53          C66   1.269       .  A
C54          O59   1.268       .  A
C54        C1516   1.485   1_565  S
C55        C1506   1.480       .  S
O57          C60   1.264       .  A
O58          C60   1.286       .  A
C60        C1526   1.494       .  S
O61          C66   1.269       .  A
O62          C64   1.275       .  A
C63          O65   1.274       .  A
C63        C1546   1.455   1_554  S
C64        C1536   1.494       .  S
C66        C1639   1.486       .  S
Fe67         O83   2.040   1_554  S
Fe67         O73   2.119   1_554  S
Fe67         O80   2.136       .  S
Fe67         O72   2.045       .  S
Fe67         O78   1.926       .  S
Fe68         O71   2.014   1_554  S
Fe68         O75   2.094   1_554  S
Fe68         O79   2.032       .  S
Fe68         O84   2.117       .  S
Fe68         O78   1.917       .  S
Fe69         O87   2.114       .  S
Fe69         O74   2.056       .  S
Fe69         O81   2.044   1_554  S
Fe69         O70   2.108       .  S
Fe69         O78   1.932       .  S
O70          C77   1.280       .  A
O71          C85   1.255       .  A
O72          C77   1.272       .  A
O73          C76   1.281       .  A
O74          C86   1.271       .  A
O75          C88   1.274       .  A
C76          O81   1.266       .  A
C76        C1496   1.491       .  S
C77        C1469   1.491       .  S
O79          C82   1.265       .  A
O80          C82   1.285       .  A
C82        C1529   1.488       .  S
O83          C88   1.263       .  A
O84          C86   1.279       .  A
C85          O87   1.278   1_556  A
C85        C1489   1.463       .  S
C86        C1476   1.504       .  S
C88        C1579   1.482       .  S
Fe89        O105   2.137       .  S
Fe89         O95   2.051       .  S
Fe89        O102   2.041       .  S
Fe89         O94   2.113       .  S
Fe89        O100   1.924       .  S
Fe90         O93   2.121       .  S
Fe90         O97   2.025       .  S
Fe90        O101   2.113       .  S
Fe90        O106   2.009       .  S
Fe90        O100   1.915       .  S
Fe91        O109   2.041       .  S
Fe91         O96   2.119       .  S
Fe91        O103   2.108       .  S
Fe91         O92   2.038       .  S
Fe91        O100   1.924       .  S
O92          C99   1.268       .  A
O93         C107   1.282       .  A
O94          C99   1.279       .  A
O95          C98   1.274       .  A
O96         C108   1.279       .  A
O97         C110   1.258       .  A
C98         O103   1.280       .  A
C98        C1429   1.490       .  S
C99        C1459   1.487       .  S
O101        C104   1.279       .  A
O102        C104   1.264       .  A
C104       C1439   1.497       .  S
O105        C110   1.284       .  A
O106        C108   1.254       .  A
C107        O109   1.264       .  A
C107       C1499   1.500       .  S
C108       C1599   1.461       .  S
C110       C1449   1.490       .  S
Fe111       O127   2.130       .  S
Fe111       O117   2.044       .  S
Fe111       O124   2.048       .  S
Fe111       O116   2.116       .  S
Fe111       O122   1.929       .  S
Fe112       O115   2.109       .  S
Fe112       O119   2.028       .  S
Fe112       O123   2.095       .  S
Fe112       O128   2.015       .  S
Fe112       O122   1.919       .  S
Fe113       O131   2.058       .  S
Fe113       O118   2.113       .  S
Fe113       O125   2.111       .  S
Fe113       O114   2.053       .  S
Fe113       O122   1.931       .  S
O114        C121   1.268       .  A
O115        C129   1.278       .  A
O116        C121   1.280       .  A
O117        C120   1.272       .  A
O118        C130   1.278       .  A
O119        C132   1.262       .  A
C120        O125   1.281       .  A
C120       C1376   1.494       .  S
C121       C1416   1.484       .  S
O123        C126   1.272       .  A
O124        C126   1.267       .  A
C126       C1386   1.483       .  S
O127        C132   1.284       .  A
O128        C130   1.256       .  A
C129        O131   1.269       .  A
C129       C1406   1.503       .  S
C130       C1399   1.458       .  S
C132       C1446   1.482       .  S
Fe133       O149   2.133       .  S
Fe133       O139   2.058       .  S
Fe133       O146   2.055       .  S
Fe133       O138   2.107       .  S
Fe133       O144   1.926       .  S
Fe134       O137   2.116       .  S
Fe134       O141   2.035       .  S
Fe134       O145   2.103       .  S
Fe134       O150   2.012       .  S
Fe134       O144   1.917       .  S
Fe135       O153   2.053       .  S
Fe135       O140   2.104       .  S
Fe135       O147   2.093       .  S
Fe135       O136   2.037       .  S
Fe135       O144   1.940       .  S
O136        C143   1.265       .  A
O137        C151   1.279       .  A
O138        C143   1.280       .  A
O139        C142   1.273       .  A
O140        C152   1.274       .  A
O141        C154   1.267       .  A
C142        O147   1.276       .  A
C142       C1336   1.470       .  S
C143       C1589   1.488       .  S
O145        C148   1.276       .  A
O146        C148   1.266       .  A
C148       C1436   1.496       .  S
O149        C154   1.284       .  A
O150        C152   1.258       .  A
C151        O153   1.270       .  A
C151       C1356   1.503       .  S
C152       C1366   1.473       .  S
C154       C1349   1.496       .  S
Fe155       O171   2.140       .  S
Fe155       O161   2.054       .  S
Fe155       O168   2.049       .  S
Fe155       O160   2.122       .  S
Fe155       O166   1.923       .  S
Fe156       O159   2.128       .  S
Fe156       O163   2.030       .  S
Fe156       O167   2.087       .  S
Fe156       O172   2.011       .  S
Fe156       O166   1.915       .  S
Fe157       O175   2.047       .  S
Fe157       O162   2.112       .  S
Fe157       O169   2.090       .  S
Fe157       O158   2.043       .  S
Fe157       O166   1.948       .  S
O158        C165   1.270       .  A
O159        C173   1.283       .  A
O160        C165   1.282       .  A
O161        C164   1.273       .  A
O162        C174   1.270       .  A
O163        C176   1.268       .  A
C164        O169   1.276       .  A
C164       C1299   1.476       .  S
C165       C1306   1.491       .  S
O167        C170   1.270       .  A
O168        C170   1.266       .  A
C170       C1389   1.491       .  S
O171        C176   1.289       .  A
O172        C174   1.248       .  A
C173        O175   1.271       .  A
C173       C1319   1.495       .  S
C174       C1326   1.473       .  S
C176       C1346   1.494       .  S
Fe177       O193   2.130       .  S
Fe177       O183   2.040       .  S
Fe177       O190   2.032       .  S
Fe177       O182   2.104       .  S
Fe177       O188   1.934       .  S
Fe178       O181   2.102       .  S
Fe178       O185   2.025       .  S
Fe178       O189   2.115       .  S
Fe178       O194   1.990       .  S
Fe178       O188   1.921       .  S
Fe179       O197   2.061       .  S
Fe179       O184   2.116       .  S
Fe179       O191   2.109       .  S
Fe179       O180   2.071       .  S
Fe179       O188   1.930       .  S
O180        C187   1.272       .  A
O181        C195   1.278       .  A
O182        C187   1.276       .  A
O183        C186   1.274       .  A
O184        C196   1.280       .  A
O185        C198   1.258       .  A
C186        O191   1.282       .  A
C186       C1259   1.481       .  S
C187       C1286   1.496       .  S
O189        C192   1.279       .  A
O190        C192   1.265       .  A
C192       C1269   1.469       .  S
O193        C198   1.279       .  A
O194        C196   1.255       .  A
C195        O197   1.270       .  A
C195       C1519   1.499       .  S
C196       C1629   1.459       .  S
C198       C1276   1.492       .  S
Fe199       O215   2.141       .  S
Fe199       O205   2.052   1_545  S
Fe199       O212   2.048       .  S
Fe199       O204   2.121   1_545  S
Fe199       O210   1.927       .  S
Fe200       O203   2.101       .  S
Fe200       O207   2.022       .  S
Fe200       O211   2.092       .  S
Fe200       O216   2.015       .  S
Fe200       O210   1.920       .  S
Fe201       O219   2.056       .  S
Fe201       O206   2.115       .  S
Fe201       O213   2.103   1_545  S
Fe201       O202   2.054       .  S
Fe201       O210   1.929       .  S
O202        C209   1.271   1_545  A
O203        C217   1.275       .  A
O204        C209   1.281       .  A
O205        C208   1.274       .  A
O206        C218   1.278       .  A
O207        C220   1.261       .  A
C208        O213   1.278       .  A
C208       C1209   1.494       .  S
C209       C1246   1.504       .  S
O211        C214   1.274       .  A
O212        C214   1.266       .  A
C214       C1236   1.482       .  S
O215        C220   1.284       .  A
O216        C218   1.258       .  A
C217        O219   1.270       .  A
C217       C1226   1.493       .  S
C218       C1216   1.461       .  S
C220       C1279   1.480       .  S
Fe221       O237   2.141       .  S
Fe221       O227   2.056   1_545  S
Fe221       O234   2.038       .  S
Fe221       O226   2.123   1_545  S
Fe221       O232   1.926       .  S
Fe222       O225   2.116       .  S
Fe222       O229   2.026       .  S
Fe222       O233   2.103       .  S
Fe222       O238   2.015       .  S
Fe222       O232   1.919       .  S
Fe223       O241   2.051       .  S
Fe223       O228   2.110       .  S
Fe223       O235   2.100   1_545  S
Fe223       O224   2.049       .  S
Fe223       O232   1.931       .  S
O224        C231   1.269   1_545  A
O225        C239   1.281       .  A
O226        C231   1.282       .  A
O227        C230   1.274       .  A
O228        C240   1.275       .  A
O229        C242   1.261       .  A
C230        O235   1.278       .  A
C230       C1166   1.493       .  S
C231       C1619   1.491       .  S
O233        C236   1.273       .  A
O234        C236   1.264       .  A
C236       C1266   1.467       .  S
O237        C242   1.286       .  A
O238        C240   1.256       .  A
C239        O241   1.268       .  A
C239       C1189   1.500       .  S
C240       C1196   1.461       .  S
C242       C1179   1.492       .  S
Fe243       O259   2.134       .  S
Fe243       O249   2.048       .  S
Fe243       O256   2.032       .  S
Fe243       O248   2.110       .  S
Fe243       O254   1.928       .  S
Fe244       O247   2.108       .  S
Fe244       O251   2.028       .  S
Fe244       O255   2.107       .  S
Fe244       O260   2.010       .  S
Fe244       O254   1.918       .  S
Fe245       O263   2.048       .  S
Fe245       O250   2.110       .  S
Fe245       O257   2.099       .  S
Fe245       O246   2.053       .  S
Fe245       O254   1.931       .  S
O246        C253   1.270       .  A
O247        C261   1.279       .  A
O248        C253   1.278       .  A
O249        C252   1.274       .  A
O250        C262   1.276       .  A
O251        C264   1.259       .  A
C252        O257   1.278       .  A
C252       C1126   1.484       .  S
C253       C1136   1.497       .  S
O255        C258   1.278       .  A
O256        C258   1.263       .  A
C258       C1239   1.489       .  S
O259        C264   1.282       .  A
O260        C262   1.258       .  A
C261        O263   1.267       .  A
C261       C1149   1.495       .  S
C262       C1156   1.476       .  S
C264       C1176   1.489       .  S
Fe265       O281   2.126       .  S
Fe265       O271   2.044       .  S
Fe265       O278   2.037       .  S
Fe265       O270   2.111       .  S
Fe265       O276   1.921       .  S
Fe266       O269   2.110       .  S
Fe266       O273   2.024       .  S
Fe266       O277   2.098       .  S
Fe266       O282   2.014       .  S
Fe266       O276   1.919       .  S
Fe267       O285   2.049       .  S
Fe267       O272   2.118       .  S
Fe267       O279   2.108       .  S
Fe267       O268   2.045       .  S
Fe267       O276   1.929       .  S
O268        C275   1.269       .  A
O269        C283   1.277       .  A
O270        C275   1.279       .  A
O271        C274   1.269       .  A
O272        C284   1.279       .  A
O273        C286   1.264       .  A
C274        O279   1.281       .  A
C274       C1169   1.486       .  S
C275       C1539   1.492       .  S
O277        C280   1.275       .  A
O278        C280   1.262       .  A
C280       C1086   1.489       .  S
O281        C286   1.283       .  A
O282        C284   1.256       .  A
C283        O285   1.270       .  A
C283       C1106   1.495       .  S
C284       C1119   1.467       .  S
C286       C1099   1.485       .  S
Fe287       O303   2.127       .  S
Fe287       O293   2.035       .  S
Fe287       O300   2.038       .  S
Fe287       O292   2.118       .  S
Fe287       O298   1.922       .  S
Fe288       O291   2.112       .  S
Fe288       O295   2.025       .  S
Fe288       O299   2.101       .  S
Fe288       O304   2.008       .  S
Fe288       O298   1.915       .  S
Fe289       O307   2.058       .  S
Fe289       O294   2.112       .  S
Fe289       O301   2.113       .  S
Fe289       O290   2.041       .  S
Fe289       O298   1.929       .  S
O290        C297   1.265       .  A
O291        C305   1.278       .  A
O292        C297   1.281       .  A
O293        C296   1.267       .  A
O294        C306   1.277       .  A
O295        C308   1.263       .  A
C296        O301   1.282       .  A
C296       C1129   1.489       .  S
C297       C1066   1.486       .  S
O299        C302   1.275       .  A
O300        C302   1.264       .  A
C302       C1076   1.482       .  S
O303        C308   1.283       .  A
O304        C306   1.257       .  A
C305        O307   1.271       .  A
C305       C1059   1.502       .  S
C306       C1046   1.472       .  S
C308       C1096   1.482       .  S
Fe309       O325   2.126       .  S
Fe309       O315   2.046       .  S
Fe309       O322   2.044   1_556  S
Fe309       O314   2.115   1_556  S
Fe309       O320   1.927       .  S
Fe310       O313   2.119       .  S
Fe310       O317   2.032       .  S
Fe310       O321   2.097   1_556  S
Fe310       O326   2.016       .  S
Fe310       O320   1.918       .  S
Fe311       O329   2.052       .  S
Fe311       O316   2.100       .  S
Fe311       O323   2.092       .  S
Fe311       O312   2.047       .  S
Fe311       O320   1.929       .  S
O312        C319   1.269   1_556  A
O313        C327   1.281       .  A
O314        C319   1.279       .  A
O315        C318   1.271       .  A
O316        C328   1.275       .  A
O317        C330   1.263       .  A
C318        O323   1.277       .  A
C318       C1256   1.470       .  S
C319       C1036   1.495       .  S
O321        C324   1.275       .  A
O322        C324   1.266       .  A
C324       C1089   1.481       .  S
O325        C330   1.283       .  A
O326        C328   1.257       .  A
C327        O329   1.267       .  A
C327       C1659   1.505       .  S
C328       C1549   1.453       .  S
C330       C1026   1.487       .  S
Fe331       O347   2.135       .  S
Fe331       O337   2.045       .  S
Fe331       O344   2.040   1_556  S
Fe331       O336   2.113       .  S
Fe331       O342   1.920       .  S
Fe332       O335   2.111       .  S
Fe332       O339   2.024       .  S
Fe332       O343   2.099   1_556  S
Fe332       O348   2.005       .  S
Fe332       O342   1.915       .  S
Fe333       O351   2.056       .  S
Fe333       O338   2.114       .  S
Fe333       O345   2.104       .  S
Fe333       O334   2.054       .  S
Fe333       O342   1.938       .  S
O334        C341   1.271   1_556  A
O335        C349   1.277       .  A
O336        C341   1.280   1_556  A
O337        C340   1.270       .  A
O338        C350   1.276       .  A
O339        C352   1.262       .  A
C340        O345   1.280       .  A
C340       C1206   1.487       .  S
C341        C996   1.494       .  S
O343        C346   1.274       .  A
O344        C346   1.262       .  A
C346       C1079   1.491       .  S
O347        C352   1.286       .  A
O348        C350   1.252       .  A
C349        O351   1.272       .  A
C349       C1019   1.500       .  S
C350       C1006   1.464       .  S
C352       C1029   1.488       .  S
Fe353       O369   2.037       .  S
Fe353       O359   2.113       .  S
Fe353       O366   2.132       .  S
Fe353       O358   2.049       .  S
Fe353       O364   1.929       .  S
Fe354       O357   2.006       .  S
Fe354       O361   2.105       .  S
Fe354       O365   2.034       .  S
Fe354       O370   2.113       .  S
Fe354       O364   1.922       .  S
Fe355       O373   2.109       .  S
Fe355       O360   2.053       .  S
Fe355       O367   2.053       .  S
Fe355       O356   2.101       .  S
Fe355       O364   1.932       .  S
O356        C363   1.280       .  A
O357        C371   1.257       .  A
O358        C363   1.273       .  A
O359        C362   1.278       .  A
O360        C372   1.267       .  A
O361        C374   1.278       .  A
C362        O367   1.269       .  A
C362       C1316   1.502       .  S
C363        C949   1.479       .  S
O365        C368   1.262       .  A
O366        C368   1.283       .  A
C368        C986   1.492       .  S
O369        C374   1.264       .  A
O370        C372   1.281       .  A
C371        O373   1.276       .  A
C371        C956   1.470       .  S
C372        C969   1.502       .  S
C374        C976   1.486       .  S
Fe375       O391   2.049       .  S
Fe375       O381   2.114   1_565  S
Fe375       O388   2.143       .  S
Fe375       O380   2.049   1_565  S
Fe375       O386   1.926       .  S
Fe376       O379   2.009       .  S
Fe376       O383   2.100       .  S
Fe376       O387   2.025       .  S
Fe376       O392   2.110       .  S
Fe376       O386   1.912       .  S
Fe377       O395   2.113       .  S
Fe377       O382   2.057       .  S
Fe377       O389   2.050       .  S
Fe377       O378   2.102   1_565  S
Fe377       O386   1.936       .  S
O378        C385   1.279       .  A
O379        C393   1.255       .  A
O380        C385   1.273       .  A
O381        C384   1.280       .  A
O382        C394   1.271       .  A
O383        C396   1.275       .  A
C384        O389   1.269   1_545  A
C384       C1146   1.481       .  S
C385        C929   1.479       .  S
O387        C390   1.261       .  A
O388        C390   1.287       .  A
C390        C989   1.491       .  S
O391        C396   1.264       .  A
O392        C394   1.277       .  A
C393        O395   1.275       .  A
C393       C1049   1.475       .  S
C394        C999   1.500       .  S
C396        C936   1.494       .  S
Fe397       O413   2.048       .  S
Fe397       O403   2.134   1_565  S
Fe397       O410   2.151       .  S
Fe397       O402   2.054   1_565  S
Fe397       O408   1.917       .  S
Fe398       O401   2.010       .  S
Fe398       O405   2.095       .  S
Fe398       O409   2.027       .  S
Fe398       O414   2.127       .  S
Fe398       O408   1.914       .  S
Fe399       O417   2.111       .  S
Fe399       O404   2.044       .  S
Fe399       O411   2.040       .  S
Fe399       O400   2.093   1_565  S
Fe399       O408   1.937       .  S
O400        C407   1.278       .  A
O401        C415   1.251       .  A
O402        C407   1.272       .  A
O403        C406   1.286       .  A
O404        C416   1.267       .  A
O405        C418   1.274       .  A
C406        O411   1.266   1_545  A
C406        C909   1.503       .  S
C407        C896   1.481       .  S
O409        C412   1.266       .  A
O410        C412   1.290       .  A
C412        C916   1.499       .  S
O413        C418   1.263       .  A
O414        C416   1.283       .  A
C415        O417   1.272       .  A
C415       C1329   1.473       .  S
C416       C1419   1.499       .  S
C418        C979   1.494       .  S
Fe419       O435   2.045       .  S
Fe419       O425   2.123       .  S
Fe419       O432   2.143       .  S
Fe419       O424   2.051       .  S
Fe419       O430   1.929       .  S
Fe420       O423   2.009       .  S
Fe420       O427   2.101       .  S
Fe420       O431   2.030       .  S
Fe420       O436   2.113       .  S
Fe420       O430   1.924       .  S
Fe421       O439   2.115       .  S
Fe421       O426   2.059       .  S
Fe421       O433   2.051       .  S
Fe421       O422   2.111       .  S
Fe421       O430   1.935       .  S
O422        C429   1.281       .  A
O423        C437   1.257       .  A
O424        C429   1.273       .  A
O425        C428   1.281       .  A
O426        C438   1.271       .  A
O427        C440   1.276       .  A
C428        O433   1.269       .  A
C428       C1056   1.501       .  S
C429        C886   1.481       .  S
O431        C434   1.264       .  A
O432        C434   1.286       .  A
C434        C919   1.493       .  S
O435        C440   1.265       .  A
O436        C438   1.278       .  A
C437        O439   1.278       .  A
C437       C1159   1.476       .  S
C438       C1249   1.501       .  S
C440        C939   1.490       .  S
Fe441       O457   2.049       .  S
Fe441       O447   2.115       .  S
Fe441       O454   2.143       .  S
Fe441       O446   2.055       .  S
Fe441       O452   1.927       .  S
Fe442       O445   2.012       .  S
Fe442       O449   2.098       .  S
Fe442       O453   2.026       .  S
Fe442       O458   2.103       .  S
Fe442       O452   1.917       .  S
Fe443       O461   2.117       .  S
Fe443       O448   2.055       .  S
Fe443       O455   2.048       .  S
Fe443       O444   2.108       .  S
Fe443       O452   1.932       .  S
O444        C451   1.280       .  A
O445        C459   1.257       .  A
O446        C451   1.274       .  A
O447        C450   1.281       .  A
O448        C460   1.270       .  A
O449        C462   1.274       .  A
C450        O455   1.267       .  A
C450       C1186   1.491       .  S
C451       C1509   1.490       .  S
O453        C456   1.261       .  A
O454        C456   1.286       .  A
C456        C876   1.489       .  S
O457        C462   1.265       .  A
O458        C460   1.275       .  A
C459        O461   1.279       .  A
C459       C1116   1.465       .  S
C460       C1039   1.497       .  S
C462        C866   1.488       .  S
Fe463       O479   2.045       .  S
Fe463       O469   2.133       .  S
Fe463       O476   2.149       .  S
Fe463       O468   2.049       .  S
Fe463       O474   1.924       .  S
Fe464       O467   2.010       .  S
Fe464       O471   2.093       .  S
Fe464       O475   2.022       .  S
Fe464       O480   2.108       .  S
Fe464       O474   1.913       .  S
Fe465       O483   2.116       .  S
Fe465       O470   2.053       .  S
Fe465       O477   2.040       .  S
Fe465       O466   2.102       .  S
Fe465       O474   1.931       .  S
O466        C473   1.280       .  A
O467        C481   1.255       .  A
O468        C473   1.271       .  A
O469        C472   1.284       .  A
O470        C482   1.270       .  A
O471        C484   1.271       .  A
C472        O477   1.268       .  A
C472       C1359   1.493       .  S
C473       C1466   1.484       .  S
O475        C478   1.260       .  A
O476        C478   1.289       .  A
C478        C879   1.494       .  S
O479        C484   1.267       .  A
O480        C482   1.276       .  A
C481        O483   1.276       .  A
C481        C846   1.478       .  S
C482        C859   1.498       .  S
C484        C836   1.490       .  S
Fe485       O501   2.045       .  S
Fe485       O491   2.104       .  S
Fe485       O498   2.127       .  S
Fe485       O490   2.046       .  S
Fe485       O496   1.923       .  S
Fe486       O489   2.013       .  S
Fe486       O493   2.100       .  S
Fe486       O497   2.026       .  S
Fe486       O502   2.114       .  S
Fe486       O496   1.919       .  S
Fe487       O505   2.110       .  S
Fe487       O492   2.061       .  S
Fe487       O499   2.053       .  S
Fe487       O488   2.106       .  S
Fe487       O496   1.934       .  S
O488        C495   1.279       .  A
O489        C503   1.254       .  A
O490        C495   1.272       .  A
O491        C494   1.278       .  A
O492        C504   1.272       .  A
O493        C506   1.274       .  A
C494        O499   1.270       .  A
C494       C1109   1.493       .  S
C495       C1606   1.482       .  S
O497        C500   1.264       .  A
O498        C500   1.283       .  A
C500        C826   1.486       .  S
O501        C506   1.263       .  A
O502        C504   1.278       .  A
C503        O505   1.277       .  A
C503       C1199   1.459       .  S
C504       C1289   1.505       .  S
C506        C869   1.493       .  S
Fe507       O523   2.050       .  S
Fe507       O513   2.115       .  S
Fe507       O520   2.128       .  S
Fe507       O512   2.048       .  S
Fe507       O518   1.924       .  S
Fe508       O511   2.013       .  S
Fe508       O515   2.085       .  S
Fe508       O519   2.026       .  S
Fe508       O524   2.092       .  S
Fe508       O518   1.923       .  S
Fe509       O527   2.106       .  S
Fe509       O514   2.056       .  S
Fe509       O521   2.043       .  S
Fe509       O510   2.100       .  S
Fe509       O518   1.933       .  S
O510        C517   1.280       .  A
O511        C525   1.259       .  A
O512        C517   1.269       .  A
O513        C516   1.281       .  A
O514        C526   1.270       .  A
O515        C528   1.269       .  A
C516        O521   1.266       .  A
C516        C816   1.493       .  S
C517       C1559   1.494       .  S
O519        C522   1.265       .  A
O520        C522   1.285       .  A
C522        C829   1.483       .  S
O523        C528   1.267       .  A
O524        C526   1.272       .  A
C525        O527   1.276       .  A
C525       C1369   1.471       .  S
C526       C1456   1.494       .  S
C528        C839   1.483       .  S
Fe529       O545   2.137       .  S
Fe529       O535   2.038   1_545  S
Fe529       O542   2.035       .  S
Fe529       O534   2.121   1_545  S
Fe529       O540   1.926       .  S
Fe530       O533   2.113       .  S
Fe530       O537   2.029       .  S
Fe530       O541   2.093       .  S
Fe530       O546   2.008       .  S
Fe530       O540   1.917       .  S
Fe531       O549   2.052       .  S
Fe531       O536   2.124       .  S
Fe531       O543   2.113   1_545  S
Fe531       O532   2.053       .  S
Fe531       O540   1.932       .  S
O532        C539   1.269   1_545  A
O533        C547   1.280       .  A
O534        C539   1.281       .  A
O535        C538   1.271       .  A
O536        C548   1.279       .  A
O537        C550   1.264       .  A
C538        O543   1.282       .  A
C538       C1339   1.475       .  S
C539       C1479   1.499       .  S
O541        C544   1.273       .  A
O542        C544   1.263       .  A
C544        C799   1.475       .  S
O545        C550   1.286       .  A
O546        C548   1.255       .  A
C547        O549   1.267       .  A
C547        C819   1.499       .  S
C548        C849   1.478   1_455  S
C550        C809   1.489       .  S
Fe551       O567   2.134       .  S
Fe551       O557   2.046       .  S
Fe551       O564   2.037       .  S
Fe551       O556   2.121       .  S
Fe551       O562   1.930       .  S
Fe552       O555   2.119       .  S
Fe552       O559   2.030       .  S
Fe552       O563   2.117       .  S
Fe552       O568   2.005       .  S
Fe552       O562   1.919       .  S
Fe553       O571   2.050       .  S
Fe553       O558   2.111       .  S
Fe553       O565   2.107       .  S
Fe553       O554   2.048       .  S
Fe553       O562   1.928       .  S
O554        C561   1.266       .  A
O555        C569   1.281       .  A
O556        C561   1.281       .  A
O557        C560   1.272       .  A
O558        C570   1.278       .  A
O559        C572   1.259       .  A
C560        O565   1.280       .  A
C560       C1296   1.471       .  S
C561        C779   1.488       .  S
O563        C566   1.281       .  A
O564        C566   1.267       .  A
C566        C789   1.486       .  S
O567        C572   1.281       .  A
O568        C570   1.258       .  A
C569        O571   1.265       .  A
C569        C906   1.502       .  S
C570        C959   1.470       .  S
C572        C806   1.490       .  S
Fe573       O589   2.134       .  S
Fe573       O579   2.045       .  S
Fe573       O586   2.029   1_556  S
Fe573       O578   2.120       .  S
Fe573       O584   1.916       .  S
Fe574       O577   2.124       .  S
Fe574       O581   2.028       .  S
Fe574       O585   2.098   1_556  S
Fe574       O590   2.008       .  S
Fe574       O584   1.913       .  S
Fe575       O593   2.047       .  S
Fe575       O580   2.122   1_455  S
Fe575       O587   2.115       .  S
Fe575       O576   2.047       .  S
Fe575       O584   1.933       .  S
O576        C583   1.270   1_556  A
O577        C591   1.283       .  A
O578        C583   1.281   1_556  A
O579        C582   1.269       .  A
O580        C592   1.277   1_655  A
O581        C594   1.262       .  A
C582        O587   1.281       .  A
C582       C1426   1.493       .  S
C583        C856   1.493       .  S
O585        C588   1.275       .  A
O586        C588   1.261       .  A
C588        C796   1.487       .  S
O589        C594   1.286       .  A
O590        C592   1.250       .  A
C591        O593   1.268       .  A
C591       C1569   1.501       .  S
C592       C1486   1.466   1_455  S
C594        C766   1.495       .  S
Fe595       O611   2.146       .  S
Fe595       O601   2.051   1_545  S
Fe595       O608   2.039   1_556  S
Fe595       O600   2.128   1_546  S
Fe595       O606   1.924       .  S
Fe596       O599   2.115       .  S
Fe596       O603   2.025       .  S
Fe596       O607   2.107   1_556  S
Fe596       O612   2.008   1_556  S
Fe596       O606   1.921       .  S
Fe597       O615   2.045       .  S
Fe597       O602   2.107       .  S
Fe597       O609   2.099   1_545  S
Fe597       O598   2.036       .  S
Fe597       O606   1.932       .  S
O598        C605   1.265   1_546  A
O599        C613   1.278       .  A
O600        C605   1.284       .  A
O601        C604   1.270       .  A
O602        C614   1.277       .  A
O603        C616   1.262       .  A
C604        O609   1.279       .  A
C604       C1379   1.495       .  S
C605        C966   1.495       .  S
O607        C610   1.276       .  A
O608        C610   1.262       .  A
C610        C786   1.494       .  S
O611        C616   1.287       .  A
O612        C614   1.256   1_554  A
C613        O615   1.268       .  A
C613        C756   1.490       .  S
C614        C749   1.463       .  S
C616        C769   1.490       .  S
Fe617       O633   2.045       .  S
Fe617       O623   2.118       .  S
Fe617       O630   2.136       .  S
Fe617       O622   2.046       .  S
Fe617       O628   1.923       .  S
Fe618       O621   2.020       .  S
Fe618       O625   2.091       .  S
Fe618       O629   2.026       .  S
Fe618       O634   2.105       .  S
Fe618       O628   1.915       .  S
Fe619       O637   2.109       .  S
Fe619       O624   2.058       .  S
Fe619       O631   2.045       .  S
Fe619       O620   2.102       .  S
Fe619       O628   1.937       .  S
O620        C627   1.277       .  A
O621        C635   1.256       .  A
O622        C627   1.271       .  A
O623        C626   1.281       .  A
O624        C636   1.272       .  A
O625        C638   1.273       .  A
C626        O631   1.270       .  A
C626        C759   1.500       .  S
C627        C899   1.489       .  S
O629        C632   1.265       .  A
O630        C632   1.286       .  A
C632        C736   1.486       .  S
O633        C638   1.263       .  A
O634        C636   1.277       .  A
C635        O637   1.275       .  A
C635       C1396   1.460       .  S
C636       C1309   1.498       .  S
C638        C726   1.487       .  S
Fe639       O655   2.046       .  S
Fe639       O645   2.111       .  S
Fe639       O652   2.123       .  S
Fe639       O644   2.054       .  S
Fe639       O650   1.927       .  S
Fe640       O643   2.025       .  S
Fe640       O647   2.093       .  S
Fe640       O651   2.038       .  S
Fe640       O656   2.111       .  S
Fe640       O650   1.928       .  S
Fe641       O659   2.105       .  S
Fe641       O646   2.051       .  S
Fe641       O653   2.050       .  S
Fe641       O642   2.102       .  S
Fe641       O650   1.933       .  S
O642        C649   1.278       .  A
O643        C657   1.259       .  A
O644        C649   1.273       .  A
O645        C648   1.279       .  A
O646        C658   1.270       .  A
O647        C660   1.274       .  A
C648        O653   1.269       .  A
C648       C1016   1.488       .  S
C649        C889   1.488       .  S
O651        C654   1.267       .  A
O652        C654   1.283       .  A
C654        C739   1.493       .  S
O655        C660   1.264       .  A
O656        C658   1.277       .  A
C657        O659   1.276       .  A
C657       C1219   1.461       .  S
C658       C1139   1.497       .  S
C660        C716   1.487       .  S
Fe661       O677   2.032   1_554  S
Fe661       O667   2.114   1_554  S
Fe661       O674   2.127       .  S
Fe661       O666   2.043       .  S
Fe661       O672   1.924       .  S
Fe662       O665   2.008   1_554  S
Fe662       O669   2.107   1_554  S
Fe662       O673   2.029       .  S
Fe662       O678   2.114       .  S
Fe662       O672   1.924       .  S
Fe663       O681   2.107       .  S
Fe663       O668   2.055       .  S
Fe663       O675   2.054   1_554  S
Fe663       O664   2.108       .  S
Fe663       O672   1.930       .  S
O664        C671   1.280       .  A
O665        C679   1.256   1_556  A
O666        C671   1.272       .  A
O667        C670   1.280       .  A
O668        C680   1.269       .  A
O669        C682   1.277       .  A
C670        O675   1.267       .  A
C670       C1409   1.497       .  S
C671        C946   1.488       .  S
O673        C676   1.263       .  A
O674        C676   1.281       .  A
C676        C709   1.491       .  S
O677        C682   1.263       .  A
O678        C680   1.280       .  A
C679        O681   1.278       .  A
C679        C746   1.462       .  S
C680        C776   1.501       .  S
C682        C729   1.487       .  S
Fe683       O699   2.040   1_554  S
Fe683       O689   2.117   1_554  S
Fe683       O696   2.132       .  S
Fe683       O688   2.050       .  S
Fe683       O694   1.922       .  S
Fe684       O687   2.014   1_554  S
Fe684       O691   2.098   1_554  S
Fe684       O695   2.025       .  S
Fe684       O700   2.116       .  S
Fe684       O694   1.918       .  S
Fe685       O703   2.103       .  S
Fe685       O690   2.048       .  S
Fe685       O697   2.041   1_554  S
Fe685       O686   2.101       .  S
Fe685       O694   1.930       .  S
O686        C693   1.278       .  A
O687        C701   1.255       .  A
O688        C693   1.272       .  A
O689        C692   1.280       .  A
O690        C702   1.268       .  A
O691        C704   1.275       .  A
C692        O697   1.268       .  A
C692       C1229   1.497       .  S
C693        C926   1.472       .  S
O695        C698   1.263       .  A
O696        C698   1.283       .  A
C698        C706   1.484       .  S
O699        C704   1.264       .  A
O700        C702   1.281       .  A
C701        O703   1.276   1_556  A
C701       C1009   1.459       .  S
C702       C1069   1.499       .  S
C704        C719   1.488       .  S
C705        C706   1.410       .  A
C705        C710   1.400       .  A
C705        H712   1.084       .  S
C706        C707   1.403       .  A
C707        C708   1.402       .  A
C707       Br714   1.918       .  S
C708        C709   1.415       .  A
C708        H713   1.083       .  S
C709        C710   1.409       .  A
C710       Br711   1.921       .  S
C715        C716   1.404       .  A
C715        C720   1.397       .  A
C715        H722   1.083       .  S
C716        C717   1.416       .  A
C717        C718   1.399       .  A
C717       Br724   1.923       .  S
C718        C719   1.406       .  A
C718        H723   1.083       .  S
C719        C720   1.418       .  A
C720       Br721   1.924       .  S
C725        C726   1.403       .  A
C725        C730   1.395       .  A
C725        H732   1.083       .  S
C726        C727   1.417       .  A
C727        C728   1.401       .  A
C727       Br734   1.923       .  S
C728        C729   1.405       .  A
C728        H733   1.083       .  S
C729        C730   1.418       .  A
C730       Br731   1.925       .  S
C735        C736   1.410       .  A
C735        C740   1.400       .  A
C735        H742   1.084       .  S
C736        C737   1.404       .  A
C737        C738   1.404       .  A
C737       Br744   1.918       .  S
C738        C739   1.415       .  A
C738        H743   1.083       .  S
C739        C740   1.410       .  A
C740       Br741   1.921       .  S
C745        C746   1.400       .  A
C745        C750   1.392       .  A
C745        H752   1.084       .  S
C746        C747   1.413   1_554  A
C747        C748   1.393       .  A
C747       Br754   1.924       .  S
C748        C749   1.401       .  A
C748        H753   1.084       .  S
C749        C750   1.413   1_556  A
C750       Br751   1.924       .  S
C755        C756   1.408       .  A
C755        C760   1.402       .  A
C755        H762   1.083       .  S
C756        C757   1.409       .  A
C757        C758   1.402       .  A
C757       Br764   1.920       .  S
C758        C759   1.414       .  A
C758        H763   1.083       .  S
C759        C760   1.416       .  A
C760       Br761   1.922       .  S
C765        C766   1.400       .  A
C765        C770   1.400       .  A
C765        H772   1.084       .  S
C766        C767   1.426       .  A
C767        C768   1.404       .  A
C767       Br774   1.924       .  S
C768        C769   1.398       .  A
C768        H773   1.084       .  S
C769        C770   1.422       .  A
C770       Br771   1.924       .  S
C775        C776   1.410       .  A
C775        C780   1.404       .  A
C775        H782   1.083       .  S
C776        C777   1.419       .  A
C777        C778   1.403       .  A
C777       Br784   1.919       .  S
C778        C779   1.402       .  A
C778        H783   1.084       .  S
C779        C780   1.413       .  A
C780       Br781   1.922       .  S
C785        C786   1.406       .  A
C785        C790   1.400       .  A
C785        H792   1.083       .  S
C786        C787   1.422       .  A
C787        C788   1.399       .  A
C787       Br794   1.924   1_545  S
C788        C789   1.401       .  A
C788        H793   1.084       .  S
C789        C790   1.415       .  A
C790       Br791   1.922       .  S
C795        C796   1.407       .  A
C795        C800   1.398       .  A
C795        H802   1.083       .  S
C796        C797   1.421       .  A
C797        C798   1.394       .  A
C797       Br804   1.925       .  S
C798        C799   1.399       .  A
C798        H803   1.084       .  S
C799        C800   1.411       .  A
C800       Br801   1.921       .  S
C805        C806   1.400       .  A
C805        C810   1.403       .  A
C805        H812   1.084       .  S
C806        C807   1.422       .  A
C807        C808   1.401       .  A
C807       Br814   1.924       .  S
C808        C809   1.398       .  A
C808        H813   1.084       .  S
C809        C810   1.422       .  A
C810       Br811   1.924       .  S
C815        C816   1.403       .  A
C815        C820   1.404       .  A
C815        H822   1.083       .  S
C816        C817   1.417   1_655  A
C817        C818   1.401       .  A
C817       Br824   1.924       .  S
C818        C819   1.406       .  A
C818        H823   1.083       .  S
C819        C820   1.423   1_455  A
C820       Br821   1.922       .  S
C825        C826   1.412       .  A
C825        C830   1.398       .  A
C825        H832   1.083       .  S
C826        C827   1.408       .  A
C827        C828   1.402       .  A
C827       Br834   1.920       .  S
C828        C829   1.412       .  A
C828        H833   1.083       .  S
C829        C830   1.404       .  A
C830       Br831   1.918       .  S
C835        C836   1.408       .  A
C835        C840   1.396       .  A
C835        H842   1.083       .  S
C836        C837   1.416       .  A
C837        C838   1.399       .  A
C837       Br844   1.923       .  S
C838        C839   1.405       .  A
C838        H843   1.084       .  S
C839        C840   1.414       .  A
C840       Br841   1.923       .  S
C845        C846   1.411       .  A
C845        C850   1.394       .  A
C845        H852   1.084       .  S
C846        C847   1.409   1_655  A
C847        C848   1.395       .  A
C847       Br854   1.922       .  S
C848        C849   1.412   1_455  A
C848        H853   1.084       .  S
C849        C850   1.408       .  A
C850       Br851   1.920       .  S
C855        C856   1.407   1_655  A
C855        C860   1.401       .  A
C855        H862   1.083       .  S
C856        C857   1.412       .  A
C857        C858   1.403   1_455  A
C857       Br864   1.921       .  S
C858        C859   1.411       .  A
C858        H863   1.083       .  S
C859        C860   1.417       .  A
C860       Br861   1.923       .  S
C865        C866   1.404       .  A
C865        C870   1.399       .  A
C865        H872   1.083       .  S
C866        C867   1.415       .  A
C867        C868   1.401       .  A
C867       Br874   1.922       .  S
C868        C869   1.407       .  A
C868        H873   1.083       .  S
C869        C870   1.419       .  A
C870       Br871   1.924       .  S
C875        C876   1.398       .  A
C875        C880   1.403       .  A
C875        H882   1.084       .  S
C876        C877   1.422       .  A
C877        C878   1.401       .  A
C877       Br884   1.924       .  S
C878        C879   1.399       .  A
C878        H883   1.083       .  S
C879        C880   1.427       .  A
C880       Br881   1.925       .  S
C885        C886   1.406       .  A
C885        C890   1.404       .  A
C885        H892   1.084       .  S
C886        C887   1.408       .  A
C887        C888   1.399       .  A
C887       Br894   1.920       .  S
C888        C889   1.408       .  A
C888        H893   1.083       .  S
C889        C890   1.414       .  A
C890       Br891   1.921       .  S
C895        C896   1.406       .  A
C895        C900   1.400       .  A
C895        H902   1.084       .  S
C896        C897   1.409       .  A
C897        C898   1.398       .  A
C897       Br904   1.922       .  S
C898        C899   1.410       .  A
C898        H903   1.083       .  S
C899        C900   1.415       .  A
C900       Br901   1.922       .  S
C905        C906   1.404       .  A
C905        C910   1.403       .  A
C905        H912   1.083       .  S
C906        C907   1.423       .  A
C907        C908   1.405       .  A
C907       Br914   1.923       .  S
C908        C909   1.405       .  A
C908        H913   1.083       .  S
C909        C910   1.424       .  A
C910       Br911   1.925   1_545  S
C915        C916   1.417       .  A
C915        C920   1.406       .  A
C915        H922   1.083       .  S
C916        C917   1.408       .  A
C917        C918   1.404       .  A
C917       Br924   1.918       .  S
C918        C919   1.413       .  A
C918        H923   1.083       .  S
C919        C920   1.405       .  A
C920       Br921   1.919       .  S
C925        C926   1.405       .  A
C925        C930   1.401       .  A
C925        H932   1.084       .  S
C926        C927   1.405       .  A
C927        C928   1.398       .  A
C927       Br934   1.919       .  S
C928        C929   1.407       .  A
C928        H933   1.084       .  S
C929        C930   1.410       .  A
C930       Br931   1.920       .  S
C935        C936   1.406       .  A
C935        C940   1.399       .  A
C935        H942   1.083       .  S
C936        C937   1.419       .  A
C937        C938   1.401       .  A
C937       Br944   1.923       .  S
C938        C939   1.405       .  A
C938        H943   1.083       .  S
C939        C940   1.415       .  A
C940       Br941   1.923       .  S
C945        C946   1.409       .  A
C945        C950   1.397       .  A
C945        H952   1.083       .  S
C946        C947   1.414       .  A
C947        C948   1.401       .  A
C947       Br954   1.919       .  S
C948        C949   1.406       .  A
C948        H953   1.084       .  S
C949        C950   1.408       .  A
C950       Br951   1.921       .  S
C955        C956   1.408       .  A
C955        C960   1.393   1_565  A
C955        H962   1.084       .  S
C956        C957   1.408       .  A
C957        C958   1.393   1_565  A
C957       Br964   1.920       .  S
C958        C959   1.408       .  A
C958        H963   1.084       .  S
C959        C960   1.408       .  A
C960       Br961   1.919       .  S
C965        C966   1.403       .  A
C965        C970   1.406       .  A
C965        H972   1.083       .  S
C966        C967   1.418       .  A
C967        C968   1.401       .  A
C967       Br974   1.925   1_565  S
C968        C969   1.406       .  A
C968        H973   1.083       .  S
C969        C970   1.424       .  A
C970       Br971   1.923       .  S
C975        C976   1.403       .  A
C975        C980   1.400       .  A
C975        H982   1.084       .  S
C976        C977   1.415       .  A
C977        C978   1.399       .  A
C977       Br984   1.923       .  S
C978        C979   1.407       .  A
C978        H983   1.083       .  S
C979        C980   1.421       .  A
C980       Br981   1.924       .  S
C985        C986   1.399       .  A
C985        C990   1.402       .  A
C985        H992   1.084       .  S
C986        C987   1.423       .  A
C987        C988   1.404       .  A
C987       Br994   1.923       .  S
C988        C989   1.400       .  A
C988        H993   1.083       .  S
C989        C990   1.423       .  A
C990       Br991   1.925       .  S
C995        C996   1.407       .  A
C995       C1000   1.403       .  A
C995       H1002   1.083       .  S
C996        C997   1.413       .  A
C997        C998   1.404       .  A
C997      Br1004   1.921       .  S
C998        C999   1.411       .  A
C998       H1003   1.083       .  S
C999       C1000   1.418       .  A
C1000     Br1001   1.923       .  S
C1005      C1006   1.404       .  A
C1005      C1010   1.396       .  A
C1005      H1012   1.084       .  S
C1006      C1007   1.413   1_556  A
C1007      C1008   1.389       .  A
C1007     Br1014   1.922       .  S
C1008      C1009   1.398   1_554  A
C1008      H1013   1.084       .  S
C1009      C1010   1.411       .  A
C1010     Br1011   1.923       .  S
C1015      C1016   1.405       .  A
C1015      C1020   1.402       .  A
C1015      H1022   1.084       .  S
C1016      C1017   1.410       .  A
C1017      C1018   1.403       .  A
C1017     Br1024   1.921       .  S
C1018      C1019   1.412       .  A
C1018      H1023   1.083       .  S
C1019      C1020   1.420       .  A
C1020     Br1021   1.924       .  S
C1025      C1026   1.399       .  A
C1025      C1030   1.401       .  A
C1025      H1032   1.084       .  S
C1026      C1027   1.421       .  A
C1027      C1028   1.401       .  A
C1027     Br1034   1.923       .  S
C1028      C1029   1.399       .  A
C1028      H1033   1.084       .  S
C1029      C1030   1.423       .  A
C1030     Br1031   1.925       .  S
C1035      C1036   1.408       .  A
C1035      C1040   1.401       .  A
C1035      H1042   1.083       .  S
C1036      C1037   1.414       .  A
C1037      C1038   1.404       .  A
C1037     Br1044   1.921       .  S
C1038      C1039   1.411       .  A
C1038      H1043   1.083       .  S
C1039      C1040   1.416       .  A
C1040     Br1041   1.923       .  S
C1045      C1046   1.410       .  A
C1045      C1050   1.394       .  A
C1045      H1052   1.084       .  S
C1046      C1047   1.407       .  A
C1047      C1048   1.391       .  A
C1047     Br1054   1.921       .  S
C1048      C1049   1.410       .  A
C1048      H1053   1.084       .  S
C1049      C1050   1.410       .  A
C1050     Br1051   1.922       .  S
C1055      C1056   1.410       .  A
C1055      C1060   1.403       .  A
C1055      H1062   1.083       .  S
C1056      C1057   1.414       .  A
C1057      C1058   1.406       .  A
C1057     Br1064   1.921       .  S
C1058      C1059   1.412       .  A
C1058      H1063   1.083       .  S
C1059      C1060   1.416       .  A
C1060     Br1061   1.923       .  S
C1065      C1066   1.401       .  A
C1065      C1070   1.403       .  A
C1065      H1072   1.084       .  S
C1066      C1067   1.414       .  A
C1067      C1068   1.402       .  A
C1067     Br1074   1.924       .  S
C1068      C1069   1.409       .  A
C1068      H1073   1.083       .  S
C1069      C1070   1.421       .  A
C1070     Br1071   1.923       .  S
C1075      C1076   1.402       .  A
C1075      C1080   1.398       .  A
C1075      H1082   1.084       .  S
C1076      C1077   1.413       .  A
C1077      C1078   1.399       .  A
C1077     Br1084   1.922       .  S
C1078      C1079   1.407       .  A
C1078      H1083   1.083       .  S
C1079      C1080   1.421       .  A
C1080     Br1081   1.925       .  S
C1085      C1086   1.407       .  A
C1085      C1090   1.399       .  A
C1085      H1092   1.083       .  S
C1086      C1087   1.420       .  A
C1087      C1088   1.396       .  A
C1087     Br1094   1.925       .  S
C1088      C1089   1.402       .  A
C1088      H1093   1.084       .  S
C1089      C1090   1.412       .  A
C1090     Br1091   1.921       .  S
C1095      C1096   1.412       .  A
C1095      C1100   1.399       .  A
C1095      H1102   1.083       .  S
C1096      C1097   1.405       .  A
C1097      C1098   1.399       .  A
C1097     Br1104   1.919       .  S
C1098      C1099   1.413       .  A
C1098      H1103   1.083       .  S
C1099      C1100   1.406       .  A
C1100     Br1101   1.920       .  S
C1105      C1106   1.409       .  A
C1105      C1110   1.400       .  A
C1105      H1112   1.083       .  S
C1106      C1107   1.415       .  A
C1107      C1108   1.402       .  A
C1107     Br1114   1.922       .  S
C1108      C1109   1.409       .  A
C1108      H1113   1.083       .  S
C1109      C1110   1.414       .  A
C1110     Br1111   1.922       .  S
C1115      C1116   1.402       .  A
C1115      C1120   1.396       .  A
C1115      H1122   1.084       .  S
C1116      C1117   1.412       .  A
C1117      C1118   1.395       .  A
C1117     Br1124   1.922       .  S
C1118      C1119   1.402       .  A
C1118      H1123   1.084       .  S
C1119      C1120   1.413       .  A
C1120     Br1121   1.923       .  S
C1125      C1126   1.401       .  A
C1125      C1130   1.396       .  A
C1125      H1132   1.084       .  S
C1126      C1127   1.415       .  A
C1127      C1128   1.401       .  A
C1127     Br1134   1.922       .  S
C1128      C1129   1.406       .  A
C1128      H1133   1.083       .  S
C1129      C1130   1.420       .  A
C1130     Br1131   1.926       .  S
C1135      C1136   1.410       .  A
C1135      C1140   1.403       .  A
C1135      H1142   1.083       .  S
C1136      C1137   1.415       .  A
C1137      C1138   1.401       .  A
C1137     Br1144   1.922       .  S
C1138      C1139   1.409       .  A
C1138      H1143   1.083       .  S
C1139      C1140   1.415       .  A
C1140     Br1141   1.922       .  S
C1145      C1146   1.402       .  A
C1145      C1150   1.404       .  A
C1145      H1152   1.084       .  S
C1146      C1147   1.409       .  A
C1147      C1148   1.400       .  A
C1147     Br1154   1.921   1_545  S
C1148      C1149   1.409       .  A
C1148      H1153   1.083       .  S
C1149      C1150   1.420       .  A
C1150     Br1151   1.923       .  S
C1155      C1156   1.409       .  A
C1155      C1160   1.393   1_545  A
C1155      H1162   1.084       .  S
C1156      C1157   1.410       .  A
C1157      C1158   1.395   1_545  A
C1157     Br1164   1.922       .  S
C1158      C1159   1.411       .  A
C1158      H1163   1.084       .  S
C1159      C1160   1.409       .  A
C1160     Br1161   1.921       .  S
C1165      C1166   1.408       .  A
C1165      C1170   1.399       .  A
C1165      H1172   1.083       .  S
C1166      C1167   1.417       .  A
C1167      C1168   1.401       .  A
C1167     Br1174   1.921       .  S
C1168      C1169   1.405       .  A
C1168      H1173   1.084       .  S
C1169      C1170   1.413       .  A
C1170     Br1171   1.922       .  S
C1175      C1176   1.399       .  A
C1175      C1180   1.403       .  A
C1175      H1182   1.084       .  S
C1176      C1177   1.422       .  A
C1177      C1178   1.401       .  A
C1177     Br1184   1.924       .  S
C1178      C1179   1.399       .  A
C1178      H1183   1.083       .  S
C1179      C1180   1.425       .  A
C1180     Br1181   1.924       .  S
C1185      C1186   1.402       .  A
C1185      C1190   1.402       .  A
C1185      H1192   1.084       .  S
C1186      C1187   1.416       .  A
C1187      C1188   1.403       .  A
C1187     Br1194   1.923       .  S
C1188      C1189   1.408       .  A
C1188      H1193   1.083       .  S
C1189      C1190   1.422       .  A
C1190     Br1191   1.922       .  S
C1195      C1196   1.403       .  A
C1195      C1200   1.396       .  A
C1195      H1202   1.084       .  S
C1196      C1197   1.408       .  A
C1197      C1198   1.391       .  A
C1197     Br1204   1.916       .  S
C1198      C1199   1.400       .  A
C1198      H1203   1.084       .  S
C1199      C1200   1.411       .  A
C1200     Br1201   1.922       .  S
C1205      C1206   1.406       .  A
C1205      C1210   1.401       .  A
C1205      H1212   1.083       .  S
C1206      C1207   1.413       .  A
C1207      C1208   1.398       .  A
C1207     Br1214   1.923       .  S
C1208      C1209   1.409       .  A
C1208      H1213   1.083       .  S
C1209      C1210   1.417       .  A
C1210     Br1211   1.923       .  S
C1215      C1216   1.404       .  A
C1215      C1220   1.396       .  A
C1215      H1222   1.084       .  S
C1216      C1217   1.408       .  A
C1217      C1218   1.394       .  A
C1217     Br1224   1.921       .  S
C1218      C1219   1.402       .  A
C1218      H1223   1.084       .  S
C1219      C1220   1.408       .  A
C1220     Br1221   1.921       .  S
C1225      C1226   1.409       .  A
C1225      C1230   1.403       .  A
C1225      H1232   1.083       .  S
C1226      C1227   1.413       .  A
C1227      C1228   1.400       .  A
C1227     Br1234   1.923       .  S
C1228      C1229   1.411       .  A
C1228      H1233   1.083       .  S
C1229      C1230   1.415       .  A
C1230     Br1231   1.921       .  S
C1235      C1236   1.402       .  A
C1235      C1240   1.395       .  A
C1235      H1242   1.084       .  S
C1236      C1237   1.413       .  A
C1237      C1238   1.400       .  A
C1237     Br1244   1.921       .  S
C1238      C1239   1.407       .  A
C1238      H1243   1.083       .  S
C1239      C1240   1.421       .  A
C1240     Br1241   1.926       .  S
C1245      C1246   1.412       .  A
C1245      C1250   1.404       .  A
C1245      H1252   1.083   1_565  S
C1246      C1247   1.417       .  A
C1247      C1248   1.406       .  A
C1247     Br1254   1.922       .  S
C1248      C1249   1.410       .  A
C1248      H1253   1.083       .  S
C1249      C1250   1.413       .  A
C1250     Br1251   1.921       .  S
C1255      C1256   1.402       .  A
C1255      C1260   1.398       .  A
C1255      H1262   1.084       .  S
C1256      C1257   1.405       .  A
C1257      C1258   1.395       .  A
C1257     Br1264   1.921       .  S
C1258      C1259   1.408       .  A
C1258      H1263   1.083       .  S
C1259      C1260   1.413       .  A
C1260     Br1261   1.916       .  S
C1265      C1266   1.396       .  A
C1265      C1270   1.389       .  A
C1265      H1272   1.084       .  S
C1266      C1267   1.408       .  A
C1267      C1268   1.408       .  A
C1267     Br1274   1.917       .  S
C1268      C1269   1.406       .  A
C1268      H1273   1.083       .  S
C1269      C1270   1.409       .  A
C1270     Br1271   1.917       .  S
C1275      C1276   1.417       .  A
C1275      C1280   1.403       .  A
C1275      H1282   1.083       .  S
C1276      C1277   1.409       .  A
C1277      C1278   1.400       .  A
C1277     Br1284   1.920       .  S
C1278      C1279   1.409       .  A
C1278      H1283   1.084       .  S
C1279      C1280   1.401       .  A
C1280     Br1281   1.917       .  S
C1285      C1286   1.406       .  A
C1285      C1290   1.406       .  A
C1285      H1292   1.083       .  S
C1286      C1287   1.414       .  A
C1287      C1288   1.404       .  A
C1287     Br1294   1.923       .  S
C1288      C1289   1.411       .  A
C1288      H1293   1.083       .  S
C1289      C1290   1.421       .  A
C1290     Br1291   1.922       .  S
C1295      C1296   1.404       .  A
C1295      C1300   1.401       .  A
C1295      H1302   1.084       .  S
C1296      C1297   1.406       .  A
C1297      C1298   1.397       .  A
C1297     Br1304   1.919       .  S
C1298      C1299   1.405       .  A
C1298      H1303   1.084       .  S
C1299      C1300   1.411       .  A
C1300     Br1301   1.920       .  S
C1305      C1306   1.406       .  A
C1305      C1310   1.399       .  A
C1305      H1312   1.084       .  S
C1306      C1307   1.411       .  A
C1307      C1308   1.405       .  A
C1307     Br1314   1.920       .  S
C1308      C1309   1.412       .  A
C1308      H1313   1.083       .  S
C1309      C1310   1.418       .  A
C1310     Br1311   1.924       .  S
C1315      C1316   1.412       .  A
C1315      C1320   1.403       .  A
C1315      H1322   1.083       .  S
C1316      C1317   1.417       .  A
C1317      C1318   1.404       .  A
C1317     Br1324   1.922       .  S
C1318      C1319   1.409       .  A
C1318      H1323   1.083       .  S
C1319      C1320   1.410       .  A
C1320     Br1321   1.920       .  S
C1325      C1326   1.411       .  A
C1325      C1330   1.392       .  A
C1325      H1332   1.084       .  S
C1326      C1327   1.408       .  A
C1327      C1328   1.392       .  A
C1327     Br1334   1.920       .  S
C1328      C1329   1.411       .  A
C1328      H1333   1.084       .  S
C1329      C1330   1.407       .  A
C1330     Br1331   1.922       .  S
C1335      C1336   1.406       .  A
C1335      C1340   1.402       .  A
C1335      H1342   1.084       .  S
C1336      C1337   1.403       .  A
C1337      C1338   1.397       .  A
C1337     Br1344   1.918       .  S
C1338      C1339   1.407       .  A
C1338      H1343   1.084       .  S
C1339      C1340   1.407       .  A
C1340     Br1341   1.918       .  S
C1345      C1346   1.414       .  A
C1345      C1350   1.405       .  A
C1345      H1352   1.083       .  S
C1346      C1347   1.407       .  A
C1347      C1348   1.403       .  A
C1347     Br1354   1.919       .  S
C1348      C1349   1.414       .  A
C1348      H1353   1.083       .  S
C1349      C1350   1.409       .  A
C1350     Br1351   1.920       .  S
C1355      C1356   1.414       .  A
C1355      C1360   1.407   1_455  A
C1355      H1362   1.083   1_455  S
C1356      C1357   1.419       .  A
C1357      C1358   1.401       .  A
C1357     Br1364   1.923       .  S
C1358      C1359   1.406   1_455  A
C1358      H1363   1.084       .  S
C1359      C1360   1.410       .  A
C1360     Br1361   1.920       .  S
C1365      C1366   1.408       .  A
C1365      C1370   1.390       .  A
C1365      H1372   1.084       .  S
C1366      C1367   1.410   1_455  A
C1367      C1368   1.393       .  A
C1367     Br1374   1.922       .  S
C1368      C1369   1.409       .  A
C1368      H1373   1.083       .  S
C1369      C1370   1.408   1_655  A
C1370     Br1371   1.922       .  S
C1375      C1376   1.407       .  A
C1375      C1380   1.398       .  A
C1375      H1382   1.083       .  S
C1376      C1377   1.415       .  A
C1377      C1378   1.402       .  A
C1377     Br1384   1.922       .  S
C1378      C1379   1.409       .  A
C1378      H1383   1.083       .  S
C1379      C1380   1.418       .  A
C1380     Br1381   1.925       .  S
C1385      C1386   1.405       .  A
C1385      C1390   1.400       .  A
C1385      H1392   1.084       .  S
C1386      C1387   1.412       .  A
C1387      C1388   1.398       .  A
C1387     Br1394   1.923       .  S
C1388      C1389   1.409       .  A
C1388      H1393   1.083       .  S
C1389      C1390   1.415       .  A
C1390     Br1391   1.922       .  S
C1395      C1396   1.402       .  A
C1395      C1400   1.395       .  A
C1395      H1402   1.084       .  S
C1396      C1397   1.407       .  A
C1397      C1398   1.394       .  A
C1397     Br1404   1.920       .  S
C1398      C1399   1.402       .  A
C1398      H1403   1.084       .  S
C1399      C1400   1.408       .  A
C1400     Br1401   1.920       .  S
C1405      C1406   1.409       .  A
C1405      C1410   1.403       .  A
C1405      H1412   1.083       .  S
C1406      C1407   1.421       .  A
C1407      C1408   1.405       .  A
C1407     Br1414   1.923       .  S
C1408      C1409   1.405       .  A
C1408      H1413   1.083       .  S
C1409      C1410   1.417       .  A
C1410     Br1411   1.923       .  S
C1415      C1416   1.401       .  A
C1415      C1420   1.404       .  A
C1415      H1422   1.084       .  S
C1416      C1417   1.410       .  A
C1417      C1418   1.402       .  A
C1417     Br1424   1.919       .  S
C1418      C1419   1.409       .  A
C1418      H1423   1.083       .  S
C1419      C1420   1.422       .  A
C1420     Br1421   1.923       .  S
C1425      C1426   1.407       .  A
C1425      C1430   1.404       .  A
C1425      H1432   1.083       .  S
C1426      C1427   1.419       .  A
C1427      C1428   1.397       .  A
C1427     Br1434   1.924       .  S
C1428      C1429   1.403       .  A
C1428      H1433   1.084       .  S
C1429      C1430   1.417       .  A
C1430     Br1431   1.922   1_455  S
C1435      C1436   1.404       .  A
C1435      C1440   1.400       .  A
C1435      H1442   1.083       .  S
C1436      C1437   1.418       .  A
C1437      C1438   1.405       .  A
C1437     Br1444   1.922       .  S
C1438      C1439   1.407       .  A
C1438      H1443   1.083       .  S
C1439      C1440   1.420       .  A
C1440     Br1441   1.925       .  S
C1445      C1446   1.396       .  A
C1445      C1450   1.400       .  A
C1445      H1452   1.084       .  S
C1446      C1447   1.419       .  A
C1447      C1448   1.401       .  A
C1447     Br1454   1.924       .  S
C1448      C1449   1.400       .  A
C1448      H1453   1.083       .  S
C1449      C1450   1.425       .  A
C1450     Br1451   1.925       .  S
C1455      C1456   1.410       .  A
C1455      C1460   1.402   1_655  A
C1455      H1462   1.083       .  S
C1456      C1457   1.418       .  A
C1457      C1458   1.397       .  A
C1457     Br1464   1.925       .  S
C1458      C1459   1.405   1_655  A
C1458      H1463   1.084       .  S
C1459      C1460   1.411       .  A
C1460     Br1461   1.921       .  S
C1465      C1466   1.406       .  A
C1465      C1470   1.401       .  A
C1465      H1472   1.084       .  S
C1466      C1467   1.411       .  A
C1467      C1468   1.398       .  A
C1467     Br1474   1.923       .  S
C1468      C1469   1.410       .  A
C1468      H1473   1.083       .  S
C1469      C1470   1.415       .  A
C1470     Br1471   1.922       .  S
C1475      C1476   1.413       .  A
C1475      C1480   1.407   1_655  A
C1475      H1482   1.083       .  S
C1476      C1477   1.418       .  A
C1477      C1478   1.404       .  A
C1477     Br1484   1.922       .  S
C1478      C1479   1.408   1_655  A
C1478      H1483   1.083   1_565  S
C1479      C1480   1.413       .  A
C1480     Br1481   1.921       .  S
C1485      C1486   1.402       .  A
C1485      C1490   1.395   1_545  A
C1485      H1492   1.084       .  S
C1486      C1487   1.415   1_656  A
C1487      C1488   1.393   1_445  A
C1487     Br1494   1.924       .  S
C1488      C1489   1.400   1_554  A
C1488      H1493   1.084   1_655  S
C1489      C1490   1.411       .  A
C1490     Br1491   1.921       .  S
C1495      C1496   1.402       .  A
C1495      C1500   1.404       .  A
C1495      H1502   1.084       .  S
C1496      C1497   1.416   1_655  A
C1497      C1498   1.401       .  A
C1497     Br1504   1.923       .  S
C1498      C1499   1.407       .  A
C1498      H1503   1.083       .  S
C1499      C1500   1.424   1_455  A
C1500     Br1501   1.925       .  S
C1505      C1506   1.406       .  A
C1505      C1510   1.403       .  A
C1505      H1512   1.084       .  S
C1506      C1507   1.407       .  A
C1507      C1508   1.399       .  A
C1507     Br1514   1.920       .  S
C1508      C1509   1.409       .  A
C1508      H1513   1.083       .  S
C1509      C1510   1.415       .  A
C1510     Br1511   1.921       .  S
C1515      C1516   1.403       .  A
C1515      C1520   1.405       .  A
C1515      H1522   1.084       .  S
C1516      C1517   1.410       .  A
C1517      C1518   1.400       .  A
C1517     Br1524   1.921   1_545  S
C1518      C1519   1.409       .  A
C1518      H1523   1.082       .  S
C1519      C1520   1.419       .  A
C1520     Br1521   1.915       .  S
C1525      C1526   1.401       .  A
C1525      C1530   1.400       .  A
C1525      H1532   1.084       .  S
C1526      C1527   1.425       .  A
C1527      C1528   1.405       .  A
C1527     Br1534   1.924       .  S
C1528      C1529   1.400       .  A
C1528      H1533   1.084       .  S
C1529      C1530   1.419       .  A
C1530     Br1531   1.923       .  S
C1535      C1536   1.409       .  A
C1535      C1540   1.402       .  A
C1535      H1542   1.083       .  S
C1536      C1537   1.416       .  A
C1537      C1538   1.400       .  A
C1537     Br1544   1.923       .  S
C1538      C1539   1.407       .  A
C1538      H1543   1.083       .  S
C1539      C1540   1.413       .  A
C1540     Br1541   1.921       .  S
C1545      C1546   1.403   1_554  A
C1545      C1550   1.394       .  A
C1545      H1552   1.084       .  S
C1546      C1547   1.407       .  A
C1547      C1548   1.391       .  A
C1547     Br1554   1.920       .  S
C1548      C1549   1.401       .  A
C1548      H1553   1.084       .  S
C1549      C1550   1.407   1_556  A
C1550     Br1551   1.921       .  S
C1555      C1556   1.404       .  A
C1555      C1560   1.397       .  A
C1555      H1562   1.083       .  S
C1556      C1557   1.417       .  A
C1557      C1558   1.402       .  A
C1557     Br1564   1.923       .  S
C1558      C1559   1.408       .  A
C1558      H1563   1.083       .  S
C1559      C1560   1.419       .  A
C1560     Br1561   1.923       .  S
C1565      C1566   1.402       .  A
C1565      C1570   1.402       .  A
C1565      H1572   1.084       .  S
C1566      C1567   1.416   1_655  A
C1567      C1568   1.403       .  A
C1567     Br1574   1.923   1_545  S
C1568      C1569   1.408       .  A
C1568      H1573   1.083       .  S
C1569      C1570   1.423   1_455  A
C1570     Br1571   1.924       .  S
C1575      C1576   1.405       .  A
C1575      C1580   1.397       .  A
C1575      H1582   1.083       .  S
C1576      C1577   1.420       .  A
C1577      C1578   1.396       .  A
C1577     Br1584   1.927       .  S
C1578      C1579   1.402       .  A
C1578      H1583   1.084       .  S
C1579      C1580   1.414       .  A
C1580     Br1581   1.922       .  S
C1585      C1586   1.404       .  A
C1585      C1590   1.399       .  A
C1585      H1592   1.083       .  S
C1586      C1587   1.419       .  A
C1587      C1588   1.398   1_655  A
C1587     Br1594   1.924   1_655  S
C1588      C1589   1.403       .  A
C1588      H1593   1.084       .  S
C1589      C1590   1.418   1_455  A
C1590     Br1591   1.924       .  S
C1595      C1596   1.402   1_455  A
C1595      C1600   1.397       .  A
C1595      H1602   1.084       .  S
C1596      C1597   1.411       .  A
C1597      C1598   1.393       .  A
C1597     Br1604   1.922       .  S
C1598      C1599   1.400   1_655  A
C1598      H1603   1.084       .  S
C1599      C1600   1.412       .  A
C1600     Br1601   1.922       .  S
C1605      C1606   1.401       .  A
C1605      C1610   1.396       .  A
C1605      H1612   1.084       .  S
C1606      C1607   1.414       .  A
C1607      C1608   1.403       .  A
C1607     Br1614   1.921       .  S
C1608      C1609   1.407       .  A
C1608      H1613   1.083       .  S
C1609      C1610   1.418       .  A
C1610     Br1611   1.924       .  S
C1615      C1616   1.409       .  A
C1615      C1620   1.402       .  A
C1615      H1622   1.083       .  S
C1616      C1617   1.424       .  A
C1617      C1618   1.406       .  A
C1617     Br1624   1.923       .  S
C1618      C1619   1.403       .  A
C1618      H1623   1.084       .  S
C1619      C1620   1.413       .  A
C1620     Br1621   1.923   1_565  S
C1625      C1626   1.391       .  A
C1625      C1630   1.391       .  A
C1625      H1632   1.084       .  S
C1626      C1627   1.418       .  A
C1627      C1628   1.391   1_565  A
C1627     Br1634   1.923       .  S
C1628      C1629   1.391       .  A
C1628      H1633   1.084       .  S
C1629      C1630   1.420   1_545  A
C1630     Br1631   1.925       .  S
C1635      C1636   1.408       .  A
C1635      C1640   1.395       .  A
C1635      H1642   1.083       .  S
C1636      C1637   1.414       .  A
C1637      C1638   1.401       .  A
C1637     Br1644   1.921       .  S
C1638      C1639   1.408       .  A
C1638      H1643   1.083       .  S
C1639      C1640   1.415       .  A
C1640     Br1641   1.925       .  S
C1645      C1646   1.415       .  A
C1645      C1650   1.405       .  A
C1645      H1652   1.083       .  S
C1646      C1647   1.407       .  A
C1647      C1648   1.406       .  A
C1647     Br1654   1.919       .  S
C1648      C1649   1.415       .  A
C1648      H1653   1.083       .  S
C1649      C1650   1.407       .  A
C1650     Br1651   1.919       .  S
C1655      C1656   1.404       .  A
C1655      C1660   1.406       .  A
C1655      H1662   1.083       .  S
C1656      C1657   1.420       .  A
C1657      C1658   1.404       .  A
C1657     Br1664   1.924       .  S
C1658      C1659   1.407       .  A
C1658      H1663   1.083       .  S
C1659      C1660   1.423       .  A
C1660     Br1661   1.924       .  S
