geometry optimzed in LAMMPS
_audit_creation_date              2020-12-01 
_audit_creation_method            'lammps2cif' 
_symmetry_space_group_name_H-M    'P1' 
_symmetry_Int_Tables_number       1 
_symmetry_cell_setting            triclinic 
loop_ 
_symmetry_equiv_pos_as_xyz 
  x,y,z 
_cell_length_a                    29.58478628 
_cell_length_b                    33.810918021456516 
_cell_length_c                    34.78542121681634 
_cell_angle_alpha                 90.92420888511263 
_cell_angle_beta                  91.41509783163089 
_cell_angle_gamma                 89.61477046155161 
loop_ 
_atom_site_label 
_atom_site_type_symbol 
_atom_site_fract_x 
_atom_site_fract_y 
_atom_site_fract_z 
_atom_site_charge 
O1          O  0.79198238  0.37054238  0.34903777    -0.81000
C2          C  0.88165232  0.47169995  0.45758996     0.98400
O3          O  0.88665054  0.43466084  0.45506197    -0.70100
O4          O  0.80505811  0.40680279  0.45434670    -0.73700
Al5        Al  0.85401678  0.39664988  0.42328308     1.49000
C6          C  0.76398208  0.40352931  0.44474812     0.93600
O7          O  0.75828993  0.47561818  0.37538559    -0.79900
O8          O  0.87061192  0.45727031  0.32271683    -0.73500
Al9        Al  0.77996003  0.42362780  0.36402237     1.90100
O10         O  0.82084849  0.50789940  0.36657575    -0.72500
O11         O  0.92488128  0.44299612  0.38179354    -0.72400
O12         O  0.86993679  0.49092879  0.42808446    -0.78000
O13         O  0.90537643  0.38236366  0.39553683    -0.76200
O14         O  0.83401771  0.43047537  0.38738823    -1.12400
O15         O  0.82546639  0.35072083  0.40210671    -0.71600
C16         C  0.80310718  0.34335821  0.37171832     0.99200
C17         C  0.77864946  0.50755496  0.37036908     0.95600
Al18       Al  0.86874710  0.47130533  0.37585161     1.55600
O19         O  0.75041280  0.40708329  0.41010088    -0.76200
C20         C  0.93427217  0.40652820  0.38474656     0.99700
C21         C  0.83794395  0.44819370  0.30033186     0.94600
O22         O  0.80004655  0.43844897  0.31361687    -0.81500
O23         O  0.77139496  0.14772464  0.62428803    -0.81000
C24         C  0.87735058  0.05158587  0.53856871     0.98400
O25         O  0.86645976  0.08760092  0.53921762    -0.70100
O26         O  0.79979494  0.13525533  0.55037248    -0.73700
Al27       Al  0.85321518  0.12363432  0.57949975     1.49000
C28         C  0.76252683  0.11755535  0.54583581     0.93600
O29         O  0.75142046  0.03959776  0.62440163    -0.79900
O30         O  0.83731667  0.04472662  0.67387106    -0.73500
Al31       Al  0.76991399  0.09298147  0.62241791     1.90100
O32         O  0.81043612  0.00832543  0.60378686    -0.72500
O33         O  0.90911140  0.06752908  0.63883740    -0.72400
O34         O  0.88021605  0.03221880  0.56949596    -0.78000
O35         O  0.91320068  0.11865411  0.60152007    -0.76200
O36         O  0.82721623  0.08631883  0.60783244    -1.12400
O37         O  0.84074162  0.16644906  0.61530514    -0.71600
C38         C  0.79994898  0.17477198  0.62237521     0.99200
C39         C  0.76947874  0.00888599  0.61146045     0.95600
Al40       Al  0.85674975  0.04218238  0.62055992     1.55600
O41         O  0.74863728  0.09370878  0.57051499    -0.76200
C42         C  0.93125666  0.09514184  0.62524025     0.99700
C43         C  0.81213259  0.06875404  0.69233899     0.94600
O44         O  0.78659416  0.09303487  0.67498108    -0.81500
O45         O  0.19399386  0.41632409  0.31350287    -0.81000
C46         C  0.10391349  0.46849939  0.44556569     0.98400
O47         O  0.09685719  0.48082221  0.41211653    -0.70100
O48         O  0.17086745  0.50557377  0.38330828    -0.73700
Al49       Al  0.12677184  0.46957932  0.36558665     1.52200
C50         C  0.21167130  0.50555962  0.37426150     0.93600
O51         O  0.23994690  0.42177810  0.41712091    -0.79900
O52         O  0.14508466  0.34729413  0.38359036    -0.73500
Al53       Al  0.21454658  0.41988409  0.36600526     1.90100
O54         O  0.18774565  0.38548396  0.44327715    -0.72500
O55         O  0.07403958  0.39695113  0.39291436    -0.72400
O56         O  0.12181805  0.43507158  0.45108646    -0.78000
O57         O  0.07872321  0.43900159  0.34583911    -0.76200
O58         O  0.15828933  0.42760090  0.38210891    -1.12400
O59         O  0.14907261  0.46827986  0.31532259    -0.71600
C60         C  0.16899851  0.44155880  0.29668919     0.99200
C61         C  0.22637583  0.40104136  0.44447909     0.95600
Al62       Al  0.13388388  0.39403092  0.41474407     1.55600
O63         O  0.23042553  0.47454320  0.36170492    -0.76200
C64         C  0.05651921  0.41470587  0.36446833     0.99700
C65         C  0.18451841  0.33775166  0.37329728     0.94600
O66         O  0.21313556  0.36422677  0.36742140    -0.81500
O67         O  0.19502650  0.05876743  0.67602865    -0.81000
C68         C  0.10560745  0.03630793  0.53690110     0.98400
O69         O  0.11721682  0.01633510  0.56587903    -0.70100
O70         O  0.16826311  0.99599470  0.62548355    -0.73700
Al71       Al  0.12091960  0.03487182  0.61743931     1.49000
C72         C  0.20990649  0.99456824  0.61802034     0.93600
O73         O  0.24070809  0.09801588  0.58147663    -0.79900
O74         O  0.16952117  0.15438418  0.59497722    -0.73500
Al75       Al  0.21245594  0.07754236  0.62656273     1.90100
O76         O  0.18492841  0.09992940  0.53873823    -0.72500
O77         O  0.08677281  0.12517598  0.60062180    -0.72400
O78         O  0.10288253  0.07364732  0.53935207    -0.78000
O79         O  0.06529056  0.06477613  0.61260122    -0.76200
O80         O  0.15705899  0.07432508  0.60531088    -1.12400
O81         O  0.12165185  0.04931348  0.67007700    -0.71600
C82         C  0.15691629  0.05293872  0.69083217     0.99200
C83         C  0.22604670  0.10408407  0.54758708     0.95600
Al84       Al  0.13751071  0.11025459  0.57155419     1.55600
O85         O  0.23054276  0.02573067  0.60987376    -0.76200
C86         C  0.05660036  0.10142023  0.60997990     0.99700
C87         C  0.19291420  0.15855792  0.62571043     0.94600
O88         O  0.20239129  0.12921118  0.64623194    -0.81500
O89         O  0.28326121  0.11351219  0.36262168    -0.81000
C90         C  0.37888410  0.22917178  0.44792243     0.98400
O91         O  0.38433206  0.19224996  0.45251565    -0.70100
O92         O  0.30860085  0.15632955  0.46251637    -0.73700
Al93       Al  0.35478933  0.14752235  0.42758788     1.49000
C94         C  0.26709953  0.15100785  0.45656615     0.93600
O95         O  0.25102466  0.22006410  0.38399328    -0.79900
O96         O  0.35414481  0.19025405  0.31888235    -0.73500
Al97       Al  0.27139227  0.16696692  0.37434359     1.90100
O98         O  0.30872266  0.24844402  0.35788032    -0.72500
O99         O  0.41821384  0.19043062  0.37327179    -0.72400
O100        O  0.36660669  0.24261723  0.41567637    -0.78000
O101        O  0.40563973  0.13307446  0.39847535    -0.76200
O102        O  0.32843495  0.17616277  0.39022135    -1.12400
O103        O  0.32874644  0.09801007  0.41113724    -0.71600
C104        C  0.30155114  0.08815029  0.38418222     0.99200
C105        C  0.26860951  0.24996780  0.36934360     0.95600
Al106      Al  0.35945701  0.21454947  0.36832524     1.55600
O107        O  0.24955439  0.15346631  0.42336100    -0.76200
C108        C  0.43167699  0.15624248  0.38224823     0.99700
C109        C  0.31693215  0.18131086  0.30242344     0.94600
O110        O  0.28149205  0.17717189  0.32141202    -0.81500
O111        O  0.28550143  0.39013537  0.64225838    -0.81000
C112        C  0.36666231  0.27215533  0.54969053     0.98400
O113        O  0.37700442  0.30861957  0.54928942    -0.70100
O114        O  0.30596331  0.35406447  0.53815045    -0.73700
Al115      Al  0.35162203  0.35431030  0.57661711     1.49000
C116        C  0.26536284  0.36405530  0.54239547     0.93600
O117        O  0.23694080  0.29374221  0.60474363    -0.79900
O118        O  0.34032814  0.29906796  0.67856249    -0.73500
Al119      Al  0.26481798  0.34103503  0.62302281     1.90100
O120        O  0.28577294  0.25319988  0.63148363    -0.72500
O121        O  0.40448291  0.29651444  0.62795741    -0.72400
O122        O  0.34705476  0.25782170  0.57800135    -0.78000
O123        O  0.40285171  0.35861062  0.61105929    -0.76200
O124        O  0.31969155  0.32553120  0.60894688    -1.12400
O125        O  0.32995161  0.40566120  0.59538607    -0.71600
C126        C  0.30269662  0.41586696  0.62141996     0.99200
C127        C  0.24716883  0.25980054  0.61642243     0.95600
Al128      Al  0.34258028  0.28057715  0.62744100     1.55600
O129        O  0.24735035  0.36321016  0.57481608    -0.76200
C130        C  0.42419772  0.32911889  0.62425330     0.99700
C131        C  0.30461143  0.31035765  0.69450425     0.94600
O132        O  0.27080811  0.32232337  0.67486545    -0.81500
O133        O  0.70563939  0.17224420  0.31839959    -0.81000
C134        C  0.60696581  0.21892661  0.44844224     0.98400
O135        O  0.60762610  0.23781918  0.41705890    -0.70100
O136        O  0.67404801  0.26194903  0.37681505    -0.73700
Al137      Al  0.62946296  0.22391559  0.36590699     1.49000
C138        C  0.71549045  0.26183050  0.37136501     0.93600
O139        O  0.73689581  0.17977257  0.42392567    -0.79900
O140        O  0.65118292  0.10096248  0.37839049    -0.73500
Al141      Al  0.71905928  0.17620936  0.37127111     1.90100
O142        O  0.68665473  0.13719051  0.44360784    -0.72500
O143        O  0.57592220  0.14528606  0.38750977    -0.72400
O144        O  0.61639740  0.18252721  0.44914265    -0.78000
O145        O  0.57642627  0.19718453  0.35139046    -0.76200
O146        O  0.66047505  0.18180845  0.38261359    -1.12400
O147        O  0.64862566  0.21497353  0.31275345    -0.71600
C148        C  0.67795089  0.19174547  0.29784098     0.99200
C149        C  0.72261636  0.15664389  0.44904986     0.95600
Al150      Al  0.63459442  0.14489008  0.41164048     1.55600
O151        O  0.73590486  0.22986282  0.36612488    -0.76200
C152        C  0.55616883  0.16828346  0.36447720     0.99700
C153        C  0.69230760  0.09319993  0.37222876     0.94600
O154        O  0.72065305  0.12069512  0.37251972    -0.81500
O155        O  0.69684794  0.34488792  0.66719058    -0.81000
C156        C  0.60389665  0.29844255  0.52992159     0.98400
O157        O  0.60385405  0.27959121  0.56129743    -0.70100
O158        O  0.67055522  0.25677962  0.60534380    -0.73700
Al159      Al  0.62362789  0.29353095  0.61374934     1.49000
C160        C  0.71211227  0.25779374  0.61267639     0.93600
O161        O  0.73238425  0.34113248  0.56367117    -0.79900
O162        O  0.64156173  0.41671901  0.60248303    -0.73500
Al163      Al  0.71194006  0.34275995  0.61497954     1.90100
O164        O  0.68057144  0.38135285  0.53958005    -0.72500
O165        O  0.56964894  0.37224299  0.58926959    -0.72400
O166        O  0.61216365  0.33493799  0.52988742    -0.78000
O167        O  0.56844074  0.32006356  0.62495914    -0.76200
O168        O  0.65401437  0.33620698  0.59936859    -1.12400
O169        O  0.64119906  0.30133510  0.66810373    -0.71600
C170        C  0.66999203  0.32374895  0.68552390     0.99200
C171        C  0.71817254  0.36377347  0.53739397     0.95600
Al172      Al  0.62802250  0.37277401  0.56843936     1.55600
O173        O  0.73112150  0.28985691  0.61976906    -0.76200
C174        C  0.54906973  0.35004923  0.61125631     0.99700
C175        C  0.68187839  0.42463686  0.61205479     0.94600
O176        O  0.71074708  0.39753532  0.61504485    -0.81500
O177        O  0.79342077  0.41086009  0.17091493    -0.81000
C178        C  0.88795651  0.45308081  0.03832489     0.98400
O179        O  0.88869644  0.47279343  0.06970603    -0.70100
O180        O  0.81904911  0.49704382  0.10510325    -0.73700
Al181      Al  0.86522209  0.46193399  0.12033536     1.49000
C182        C  0.77796865  0.49675021  0.11210486     0.93600
O183        O  0.75890213  0.41153877  0.06556067    -0.79900
O184        O  0.84871460  0.33686066  0.10953808    -0.73500
Al185      Al  0.77839046  0.41163956  0.11802626     1.90100
O186        O  0.81121244  0.37011430  0.04472914    -0.72500
O187        O  0.92201015  0.38382417  0.10041404    -0.72400
O188        O  0.87874310  0.41677556  0.03796184    -0.78000
O189        O  0.91816474  0.43639910  0.13749155    -0.76200
O190        O  0.83619330  0.41792310  0.10519429    -1.12400
O191        O  0.84499338  0.45804878  0.17357537    -0.71600
C192        C  0.81861571  0.43427919  0.19016739     0.99200
C193        C  0.77383107  0.38784971  0.04021315     0.95600
Al194      Al  0.86319508  0.38037200  0.07618049     1.55600
O195        O  0.75967627  0.46555436  0.12233304    -0.76200
C196        C  0.94005137  0.40768062  0.12432219     0.99700
C197        C  0.80786010  0.32883915  0.11620727     0.94600
O198        O  0.77916883  0.35627512  0.11763660    -0.81500
O199        O  0.80224512  0.06300044  0.81598592    -0.81000
C200        C  0.89170578  0.02909256  0.95432116     0.98400
O201        O  0.87769808  0.00902812  0.92530262    -0.70100
O202        O  0.82690910  0.99130166  0.86316508    -0.73700
Al203      Al  0.87464500  0.02740045  0.87312296     1.49000
C204        C  0.78524222  0.99159983  0.86848308     0.93600
O205        O  0.76108327  0.09024345  0.91718020    -0.79900
O206        O  0.83912595  0.15189635  0.89884721    -0.73500
Al207      Al  0.78536057  0.07596288  0.86821156     1.90100
O208        O  0.82074829  0.10119564  0.95496166    -0.72500
O209        O  0.91827746  0.11417303  0.88906972    -0.72400
O210        O  0.89836965  0.06594726  0.95136653    -0.78000
O211        O  0.93228702  0.05157992  0.87830139    -0.76200
O212        O  0.84192103  0.06987379  0.88689848    -1.12400
O213        O  0.87326450  0.04197794  0.82042599    -0.71600
C214        C  0.83909673  0.05265422  0.80034713     0.99200
C215        C  0.77873107  0.09860102  0.94983343     0.95600
Al216      Al  0.86702016  0.10514195  0.92011798     1.55600
O217        O  0.76581485  0.02331061  0.87775256    -0.76200
C218        C  0.94548447  0.08691501  0.88016018     0.99700
C219        C  0.80822739  0.15824694  0.87404523     0.94600
O220        O  0.79087236  0.12989939  0.85524908    -0.81500
O221        O  0.21635460  0.35587479  0.12606807    -0.81000
C222        C  0.11624042  0.46887446  0.04448448     0.98400
O223        O  0.11018148  0.43199126  0.04040910    -0.70100
O224        O  0.18699855  0.39901168  0.02962460    -0.73700
Al225      Al  0.14214491  0.38865910  0.06421094     1.49000
C226        C  0.22902302  0.39717226  0.03457116     0.93600
O227        O  0.24415363  0.46363653  0.11087917    -0.79900
O228        O  0.14266665  0.43340127  0.17382759    -0.73500
Al229      Al  0.22553856  0.40994841  0.11719411     1.90100
O230        O  0.18487671  0.49187892  0.13570462    -0.72500
O231        O  0.07786009  0.43123506  0.11912421    -0.72400
O232        O  0.12806763  0.48348907  0.07683817    -0.78000
O233        O  0.09262376  0.37334797  0.09370203    -0.76200
O234        O  0.16801894  0.41819843  0.10201106    -1.12400
O235        O  0.17004301  0.33956349  0.07849169    -0.71600
C236        C  0.19778245  0.32991827  0.10478469     0.99200
C237        C  0.22543880  0.49355734  0.12577609     0.95600
Al238      Al  0.13585283  0.45659858  0.12442330     1.55600
O239        O  0.24735520  0.39923770  0.06749105    -0.76200
C240        C  0.06561361  0.39658577  0.10982211     0.99700
C241        C  0.17999868  0.42298140  0.18944815     0.94600
O242        O  0.21504194  0.41795666  0.17011436    -0.81500
O243        O  0.20241185  0.12885339  0.85396613    -0.81000
C244        C  0.13152562  0.00768096  0.94394870     0.98400
O245        O  0.11916021  0.04363890  0.94504709    -0.70100
O246        O  0.19010088  0.08803005  0.95666477    -0.73700
Al247      Al  0.14276917  0.08960327  0.91986296     1.49000
C248        C  0.22993344  0.09925783  0.95145973     0.93600
O249        O  0.25943728  0.03435438  0.88521053    -0.79900
O250        O  0.15377543  0.03621640  0.81417363    -0.73500
Al251      Al  0.22767240  0.08035205  0.87006626     1.90100
O252        O  0.21187824  0.99151375  0.85967126    -0.72500
O253        O  0.09120083  0.03235272  0.86642129    -0.72400
O254        O  0.15114128  0.99366559  0.91479830    -0.78000
O255        O  0.09102954  0.09421479  0.88662382    -0.76200
O256        O  0.17465157  0.06242236  0.88510135    -1.12400
O257        O  0.16137081  0.14170703  0.90423972    -0.71600
C258        C  0.18539917  0.15345690  0.87718760     0.99200
C259        C  0.25076128  0.99996768  0.87331590     0.95600
Al260      Al  0.15360048  0.01714521  0.86537179     1.55600
O261        O  0.24568404  0.10177607  0.91839054    -0.76200
C262        C  0.07074548  0.06484439  0.87169595     0.99700
C263        C  0.18777178  0.05049878  0.79822756     0.94600
O264        O  0.22141788  0.06250726  0.81792012    -0.81500
O265        O  0.30196946  0.17505515  0.18017073    -0.81000
C266        C  0.37838456  0.20892106  0.04172708     0.98400
O267        O  0.36397434  0.22929838  0.06989677    -0.70100
O268        O  0.31734774  0.24483433  0.13274446    -0.73700
Al269      Al  0.36696786  0.21214436  0.12233152     1.49000
C270        C  0.27594192  0.24269290  0.12559396     0.93600
O271        O  0.25656151  0.14112671  0.08168276    -0.79900
O272        O  0.34150634  0.08594359  0.09971501    -0.73500
Al273      Al  0.28288982  0.15896977  0.12902885     1.90100
O274        O  0.31452628  0.13378485  0.04350770    -0.72500
O275        O  0.41733077  0.12837800  0.10941149    -0.72400
O276        O  0.38938400  0.17295319  0.04597463    -0.78000
O277        O  0.42572575  0.19225912  0.11693752    -0.76200
O278        O  0.33743005  0.16761358  0.10991274    -1.12400
O279        O  0.37144425  0.19807349  0.17460742    -0.71600
C280        C  0.33952693  0.18642248  0.19504350     0.99200
C281        C  0.27263794  0.13344468  0.04917778     0.95600
Al282      Al  0.36365416  0.13320216  0.07781328     1.55600
O283        O  0.25837726  0.21006423  0.11659487    -0.76200
C284        C  0.44158305  0.15787073  0.11826595     0.99700
C285        C  0.31274024  0.07845902  0.12453969     0.94600
O286        O  0.29489093  0.10602232  0.14380965    -0.81500
O287        O  0.29106831  0.29935429  0.81479399    -0.81000
C288        C  0.37505632  0.27904552  0.95504754     0.98400
O289        O  0.36027306  0.25675415  0.92786551    -0.70100
O290        O  0.31106425  0.23642275  0.86571999    -0.73700
Al291      Al  0.36084266  0.26994316  0.87470101     1.49000
C292        C  0.26983824  0.23845810  0.87267761     0.93600
O293        O  0.25094386  0.34452372  0.90863904    -0.79900
O294        O  0.33317731  0.39684157  0.88583118    -0.73500
Al295      Al  0.27513851  0.32084946  0.86369743     1.90100
O296        O  0.31036519  0.35546811  0.94664975    -0.72500
O297        O  0.41079759  0.35414520  0.88169668    -0.72400
O298        O  0.38472669  0.31496386  0.94895725    -0.78000
O299        O  0.41967171  0.29005309  0.87999964    -0.76200
O300        O  0.33080560  0.31473245  0.88385821    -1.12400
O301        O  0.36284803  0.28122863  0.82154842    -0.71600
C302        C  0.32904685  0.29075197  0.80055646     0.99200
C303        C  0.26836447  0.35599634  0.94028392     0.95600
Al304      Al  0.35778887  0.35218081  0.91297187     1.55600
O305        O  0.25217113  0.27126679  0.88118718    -0.76200
C306        C  0.43509477  0.32399323  0.87540176     0.99700
C307        C  0.30412851  0.40045442  0.85888005     0.94600
O308        O  0.28682406  0.37059245  0.84270730    -0.81500
O309        O  0.70232836  0.10938054  0.14282242    -0.81000
C310        C  0.61819831  0.20520687  0.03004999     0.98400
O311        O  0.61236630  0.16849302  0.03328072    -0.70100
O312        O  0.69406478  0.14130562  0.03552028    -0.73700
Al313      Al  0.64505381  0.13203267  0.06582706     1.49000
C314        C  0.73464973  0.13591591  0.04561734     0.93600
O315        O  0.74050200  0.21133574  0.11291424    -0.79900
O316        O  0.62579157  0.19805545  0.16432662    -0.73500
Al317      Al  0.71727674  0.16077466  0.12588148     1.90100
O318        O  0.67814179  0.24544081  0.12082847    -0.72500
O319        O  0.57343120  0.18103670  0.10459389    -0.72400
O320        O  0.62997387  0.22583418  0.05910090    -0.78000
O321        O  0.59333111  0.11919831  0.09323130    -0.76200
O322        O  0.66411723  0.16741509  0.10135019    -1.12400
O323        O  0.67453229  0.08715551  0.08789524    -0.71600
C324        C  0.69416775  0.08116161  0.11977595     0.99200
C325        C  0.72056104  0.24401042  0.11750614     0.95600
Al326      Al  0.62952170  0.20920726  0.11131116     1.55600
O327        O  0.74762169  0.13964244  0.08061790    -0.76200
C328        C  0.56402382  0.14441925  0.10252213     0.99700
C329        C  0.65819316  0.19113451  0.18748322     0.94600
O330        O  0.69655342  0.18035615  0.17521739    -0.81500
O331        O  0.70974397  0.38164849  0.84866084    -0.81000
C332        C  0.61762756  0.28062376  0.94816244     0.98400
O333        O  0.61079908  0.31743611  0.94562760    -0.70100
O334        O  0.69038081  0.34796781  0.94938592    -0.73700
Al335      Al  0.64196205  0.35583179  0.91588285     1.49000
C336        C  0.73201349  0.34806031  0.94314316     0.93600
O337        O  0.73936804  0.27474138  0.87031933    -0.79900
O338        O  0.62637434  0.29420454  0.81538408    -0.73500
Al339      Al  0.71821285  0.32756242  0.86103856     1.90100
O340        O  0.67739259  0.24254443  0.85745289    -0.72500
O341        O  0.57251792  0.30626546  0.87376153    -0.72400
O342        O  0.63037328  0.26075127  0.91922496    -0.78000
O343        O  0.58967100  0.36818986  0.88564781    -0.76200
O344        O  0.66364631  0.32127060  0.88114898    -1.12400
O345        O  0.66953080  0.40198399  0.89695657    -0.71600
C346        C  0.69612593  0.40907674  0.87044032     0.99200
C347        C  0.71959012  0.24268206  0.86287269     0.95600
Al348      Al  0.62958696  0.27960555  0.86759932     1.55600
O349        O  0.74721273  0.34194853  0.90974711    -0.76200
C350        C  0.56074756  0.34227300  0.87693758     0.99700
C351        C  0.65803659  0.30509176  0.79435616     0.94600
O352        O  0.69649052  0.31492314  0.80884075    -0.81500
C353        C  0.61361658  0.22293069  0.99139792    -0.15600
C354        C  0.61278560  0.26221282  0.98621822    -0.30800
H355        H  0.61371280  0.20308647  0.96651821     0.13400
H356        H  0.61112254  0.28192282  0.01113986     0.14000
C357        C  0.48227380  0.32538432  0.86338630    -0.15600
C358        C  0.51213487  0.35299835  0.87472537    -0.30800
H359        H  0.49489783  0.29792639  0.85079712     0.13400
H360        H  0.50079622  0.38052204  0.88794808     0.14000
C361        C  0.51730281  0.13163425  0.10792034    -0.15600
C362        C  0.48966123  0.15481282  0.12802338    -0.30800
H363        H  0.50414251  0.10712177  0.09053078     0.13400
H364        H  0.50392813  0.17946118  0.14466524     0.14000
C365        C  0.37963745  0.26408929  0.99490429    -0.15600
C366        C  0.38060035  0.22527669  0.00250367    -0.30800
H367        H  0.38077833  0.28551933  0.01851389     0.13400
H368        H  0.38170914  0.20410509  0.97869284     0.14000
C369        C  0.28373023  0.46954826  0.87466505    -0.15600
C370        C  0.28440428  0.43936740  0.84902926    -0.30800
H371        H  0.30632770  0.96820344  0.90296941     0.13400
H372        H  0.26172004  0.44042028  0.82398679     0.14000
C373        C  0.20090225  0.19504653  0.87691863    -0.15600
C374        C  0.24467822  0.20106017  0.86938546    -0.30800
H375        H  0.17991174  0.21885336  0.88804290     0.13400
H376        H  0.26524652  0.17569640  0.86099160     0.14000
C377        C  0.25894127  0.11064017  0.98379810    -0.15600
C378        C  0.24210389  0.12231379  0.01743045    -0.30800
H379        H  0.29512313  0.11117560  0.97905715     0.13400
H380        H  0.20585865  0.12273985  0.02184295     0.14000
C381        C  0.25697456  0.38904477  0.00171560    -0.15600
C382        C  0.23926118  0.37081636  0.97036591    -0.30800
H383        H  0.29320727  0.39356488  0.00508689     0.13400
H384        H  0.20310295  0.36569725  0.96726529     0.14000
C385        C  0.11228811  0.49510516  0.01067040    -0.15600
C386        C  0.12400928  0.98149323  0.97711638    -0.30800
H387        H  0.10820344  0.52665573  0.01599374     0.13400
H388        H  0.12935931  0.45063195  0.97032873     0.14000
C389        C  0.25018251  0.27980096  0.12852395    -0.15600
C390        C  0.21204523  0.28808274  0.10853194    -0.30800
H391        H  0.26742305  0.30347222  0.14438549     0.13400
H392        H  0.19570490  0.26543812  0.09068862     0.14000
C393        C  0.25159738  0.03140911  0.13447413    -0.15600
C394        C  0.29552410  0.03737965  0.12701056    -0.30800
H395        H  0.23111420  0.05655938  0.14347612     0.13400
H396        H  0.31601174  0.01305960  0.11618994     0.14000
C397        C  0.99410387  0.09507297  0.87554497    -0.15600
C398        C  0.02177683  0.06606254  0.86308773    -0.30800
H399        H  0.00787858  0.12251106  0.88735014     0.13400
H400        H  0.00720352  0.03896801  0.85112626     0.14000
C401        C  0.76599520  0.12313473  0.01580543    -0.15600
C402        C  0.74964236  0.10764510  0.98223476    -0.30800
H403        H  0.80210807  0.12623352  0.02128912     0.13400
H404        H  0.71347560  0.10386485  0.97744941     0.14000
C405        C  0.74462582  0.20427523  0.86055122    -0.15600
C406        C  0.78899140  0.19896797  0.86980384    -0.30800
H407        H  0.72440785  0.17843503  0.85302481     0.13400
H408        H  0.80912420  0.22406264  0.87963249     0.14000
C409        C  0.76063598  0.45308473  0.86589208    -0.15600
C410        C  0.71556560  0.44914681  0.86844033    -0.30800
H411        H  0.78081637  0.92787147  0.85631154     0.13400
H412        H  0.69470958  0.47463581  0.87561560     0.14000
C413        C  0.98886560  0.40607132  0.13418951    -0.15600
C414        C  0.01805591  0.38430967  0.11374674    -0.30800
H415        H  0.00195345  0.42936895  0.15319662     0.13400
H416        H  0.00558961  0.36071712  0.09482614     0.14000
C417        C  0.89439017  0.47191891  0.00023977    -0.15600
C418        C  0.89808622  0.01078072  0.99304922    -0.30800
H419        H  0.89118276  0.45262941  0.97504111     0.13400
H420        H  0.90116022  0.03060295  0.01784995     0.14000
C421        C  0.74647256  0.37915870  0.00563095    -0.15600
C422        C  0.76237781  0.35761259  0.97581262    -0.30800
H423        H  0.71192834  0.39034493  0.00492922     0.13400
H424        H  0.79753218  0.34820402  0.97509343     0.14000
C425        C  0.75220358  0.03351640  0.10644463    -0.15600
C426        C  0.71514445  0.04243751  0.12642805    -0.30800
H427        H  0.76540887  0.05524368  0.08695867     0.13400
H428        H  0.70274830  0.02303004  0.14833164     0.14000
C429        C  0.74508581  0.28201280  0.11885581    -0.15600
C430        C  0.79054960  0.28756900  0.11885428    -0.30800
H431        H  0.72284042  0.30770738  0.11952353     0.13400
H432        H  0.81370077  0.26255133  0.11791709     0.14000
C433        C  0.67531177  0.32501375  0.72809782    -0.15600
C434        C  0.64936098  0.30502912  0.75207039    -0.30800
H435        H  0.70299953  0.34258861  0.74017330     0.13400
H436        H  0.62062758  0.28844796  0.74052536     0.14000
C437        C  0.68261115  0.18699089  0.25570817    -0.15600
C438        C  0.65086468  0.19689832  0.22934610    -0.30800
H439        H  0.71375482  0.17325246  0.24606424     0.13400
H440        H  0.61885689  0.20928840  0.23857164     0.14000
C441        C  0.59826422  0.23886301  0.48629006    -0.15600
C442        C  0.59759182  0.27837886  0.49152647    -0.30800
H443        H  0.59861656  0.22027746  0.51149927     0.13400
H444        H  0.59874402  0.29695341  0.46636826     0.14000
C445        C  0.30119869  0.30855506  0.73636148    -0.15600
C446        C  0.33377703  0.29230772  0.75873689    -0.30800
H447        H  0.27051078  0.32022654  0.74896858     0.13400
H448        H  0.36474067  0.28101601  0.74633481     0.14000
C449        C  0.50039266  0.35783893  0.61761610    -0.15600
C450        C  0.47353500  0.33035106  0.63244837    -0.30800
H451        H  0.48517075  0.38338681  0.60368202     0.13400
H452        H  0.48882278  0.30406749  0.64497737     0.14000
C453        C  0.31315227  0.17669188  0.26044634    -0.15600
C454        C  0.34614205  0.18728196  0.23709742    -0.30800
H455        H  0.28104241  0.16632795  0.24836342     0.13400
H456        H  0.37801535  0.19830000  0.24905603     0.14000
C457        C  0.47949483  0.14448712  0.37746186    -0.15600
C458        C  0.50718175  0.16549188  0.35577948    -0.30800
H459        H  0.49338281  0.12206709  0.39649992     0.13400
H460        H  0.49265756  0.18765724  0.33674209     0.14000
C461        C  0.38364507  0.25707859  0.48111732    -0.15600
C462        C  0.37630336  0.24497052  0.51705012    -0.30800
H463        H  0.38556729  0.28852427  0.47546947     0.13400
H464        H  0.37114242  0.21364075  0.52184480     0.14000
C465        C  0.15345058  0.04921106  0.73279201    -0.15600
C466        C  0.18976819  0.05341526  0.75622336    -0.30800
H467        H  0.12061054  0.04300301  0.74457537     0.13400
H468        H  0.22229053  0.06059013  0.74434037     0.14000
C469        C  0.24213488  0.46341961  0.63528789    -0.15600
C470        C  0.28485981  0.45709174  0.62343272    -0.30800
H471        H  0.22369527  0.43892875  0.64713374     0.13400
H472        H  0.30295733  0.48050592  0.60950446     0.14000
C473        C  0.21434412  0.22730699  0.61162578    -0.15600
C474        C  0.21465097  0.19664007  0.63569273    -0.30800
H475        H  0.19146632  0.22753909  0.58662062     0.13400
H476        H  0.23697547  0.19746943  0.66108586     0.14000
C477        C  0.25621218  0.11901900  0.51840771    -0.15600
C478        C  0.23889665  0.13878250  0.48805313    -0.30800
H479        H  0.29248842  0.11493329  0.52226759     0.13400
H480        H  0.20255326  0.14263712  0.48435496     0.14000
C481        C  0.16149097  0.44119723  0.25490285    -0.15600
C482        C  0.18460383  0.41797611  0.23110383    -0.30800
H483        H  0.13716973  0.46233130  0.24314857     0.13400
H484        H  0.21106707  0.39856495  0.24228036     0.14000
C485        C  0.25575560  0.39282897  0.47807501    -0.15600
C486        C  0.23792288  0.37684113  0.50942168    -0.30800
H487        H  0.29178680  0.39850000  0.47680052     0.13400
H488        H  0.20152047  0.37364762  0.51145922     0.14000
C489        C  0.09421204  0.49556896  0.47791469    -0.15600
C490        C  0.09794644  0.01645858  0.49906472    -0.30800
H491        H  0.08442674  0.52578116  0.47124266     0.13400
H492        H  0.09311864  0.03496515  0.47402360     0.14000
C493        C  0.20036011  0.29577559  0.37184027    -0.15600
C494        C  0.24461909  0.28825649  0.36563205    -0.30800
H495        H  0.17773164  0.27212986  0.37938476     0.13400
H496        H  0.26631654  0.31251741  0.35783014     0.14000
C497        C  0.24089101  0.04218903  0.38820422    -0.15600
C498        C  0.28483795  0.04746201  0.38127217    -0.30800
H499        H  0.22056472  0.06769453  0.39673518     0.13400
H500        H  0.30735425  0.02285876  0.37492309     0.14000
C501        C  0.81053613  0.06866348  0.73489070    -0.15600
C502        C  0.84236649  0.05202541  0.75777400    -0.30800
H503        H  0.78233202  0.08415599  0.74792827     0.13400
H504        H  0.87174407  0.03805575  0.74507697     0.14000
C505        C  0.98016390  0.09552923  0.63441544    -0.15600
C506        C  0.00969866  0.11585876  0.61403119    -0.30800
H507        H  0.99294501  0.07222792  0.65305308     0.13400
H508        H  0.99805590  0.13977459  0.59569849     0.14000
C509        C  0.73503010  0.12537011  0.51130990    -0.15600
C510        C  0.74875798  0.15085972  0.48471341    -0.30800
H511        H  0.70349666  0.10934927  0.50735764     0.13400
H512        H  0.78025271  0.16693875  0.48867986     0.14000
C513        C  0.78173304  0.21564882  0.62318292    -0.15600
C514        C  0.73734302  0.22041536  0.61344472    -0.30800
H515        H  0.80355375  0.24076820  0.62931177     0.13400
H516        H  0.71695371  0.19473544  0.60565512     0.14000
C517        C  0.74227207  0.47114703  0.60753557    -0.15600
C518        C  0.69869042  0.46537488  0.61630501    -0.30800
H519        H  0.76218256  0.44661074  0.59619825     0.13400
H520        H  0.67690498  0.48945673  0.62561979     0.14000
C521        C  0.81463206  0.43361527  0.23266868    -0.15600
C522        C  0.84434914  0.44994226  0.25802273    -0.30800
H523        H  0.78590883  0.41778471  0.24359140     0.13400
H524        H  0.87433815  0.46429633  0.24764269     0.14000
C525        C  0.00788949  0.41223870  0.35608012    -0.15600
C526        C  0.98066418  0.39273766  0.37914838    -0.30800
H527        H  0.99343908  0.43355808  0.33608080     0.13400
H528        H  0.99415735  0.37045600  0.39853794     0.14000
C529        C  0.88723697  0.49131867  0.49617608    -0.15600
C530        C  0.88345998  0.03242005  0.50009540    -0.30800
H531        H  0.89148399  0.47241124  0.52097983     0.13400
H532        H  0.87831071  0.05097426  0.47512236     0.14000
C533        C  0.73230370  0.39336162  0.47465082    -0.15600
C534        C  0.74684073  0.37170676  0.50476594    -0.30800
H535        H  0.69721790  0.40274943  0.47169376     0.13400
H536        H  0.78138343  0.36052642  0.50609112     0.14000
C537        C  0.70985817  0.05205379  0.36795108    -0.15600
C538        C  0.75513166  0.04628057  0.36632612    -0.30800
H539        H  0.68698950  0.02715911  0.36927335     0.13400
H540        H  0.77724215  0.07174581  0.36505364     0.14000
C541        C  0.78378493  0.30378496  0.36622411    -0.15600
C542        C  0.73907635  0.29996623  0.37070213    -0.30800
H543        H  0.80581279  0.27803414  0.36445659     0.13400
H544        H  0.71858186  0.32643451  0.37511166     0.14000
O545        O  0.79214323  0.87022419  0.34936458    -0.81000
C546        C  0.88257639  0.97325044  0.45618313     0.98400
O547        O  0.88729359  0.93619539  0.45406151    -0.70100
O548        O  0.80563232  0.90868162  0.45341338    -0.73700
Al549      Al  0.85466567  0.89790015  0.42276295     1.49000
C550        C  0.76449362  0.90588607  0.44386918     0.93600
O551        O  0.75886869  0.97604952  0.37240684    -0.79900
O552        O  0.87127275  0.95741435  0.32135542    -0.73500
Al553      Al  0.78065452  0.92381768  0.36279440     1.90100
O554        O  0.82153433  0.00847828  0.36482717    -0.72500
O555        O  0.92548021  0.94358183  0.38075629    -0.72400
O556        O  0.87070234  0.99214993  0.42651404    -0.78000
O557        O  0.90620729  0.88314203  0.39545434    -0.76200
O558        O  0.83467743  0.93114373  0.38628141    -1.12400
O559        O  0.82632340  0.85160042  0.40249508    -0.71600
C560        C  0.80354936  0.84356285  0.37253174     0.99200
C561        C  0.77922233  0.00801459  0.36774719     0.95600
Al562      Al  0.86939445  0.97190138  0.37441565     1.55600
O563        O  0.75087334  0.90896950  0.40919851    -0.76200
C564        C  0.93516645  0.90725953  0.38466863     0.99700
C565        C  0.83898458  0.94735720  0.29895095     0.94600
O566        O  0.80126734  0.93704780  0.31217781    -0.81500
O567        O  0.76968453  0.64716722  0.62531944    -0.81000
C568        C  0.87552083  0.54976748  0.54017308     0.98400
O569        O  0.86419742  0.58568172  0.54062724    -0.70100
O570        O  0.79830117  0.63386892  0.55209979    -0.73700
Al571      Al  0.85150916  0.62189785  0.58087322     1.49000
C572        C  0.76100603  0.61631657  0.54746609     0.93600
O573        O  0.74953045  0.53845210  0.62635301    -0.79900
O574        O  0.83496274  0.54324913  0.67541388    -0.73500
Al575      Al  0.76816883  0.59199429  0.62399525     1.90100
O576        O  0.80827488  0.50720574  0.60510389    -0.72500
O577        O  0.90700458  0.56584937  0.64075892    -0.72400
O578        O  0.87855975  0.53059633  0.57121708    -0.78000
O579        O  0.91141209  0.61609472  0.60233730    -0.76200
O580        O  0.82538394  0.58493727  0.60937659    -1.12400
O581        O  0.83945756  0.66499458  0.61662798    -0.71600
C582        C  0.79861733  0.67395093  0.62313839     0.99200
C583        C  0.76740480  0.50776236  0.61306408     0.95600
Al584      Al  0.85466915  0.54069423  0.62219393     1.55600
O585        O  0.74690291  0.59242260  0.57203633    -0.76200
C586        C  0.92953213  0.59245685  0.62590234     0.99700
C587        C  0.81030626  0.56765981  0.69393770     0.94600
O588        O  0.78514028  0.59229775  0.67660436    -0.81500
O589        O  0.19595053  0.92116565  0.31719562    -0.81000
C590        C  0.11091216  0.95809656  0.45655501     0.98400
O591        O  0.10571803  0.97724298  0.42587029    -0.70100
O592        O  0.17678661  0.00372995  0.39476075    -0.73700
Al593      Al  0.13082666  0.97043314  0.37577192     1.52200
C594        C  0.21682420  0.00452847  0.38415255     0.93600
O595        O  0.24246201  0.91659580  0.42018019    -0.79900
O596        O  0.14683509  0.84642080  0.37712016    -0.73500
Al597      Al  0.21730291  0.91969716  0.36912832     1.90100
O598        O  0.19088612  0.87568933  0.44086879    -0.72500
O599        O  0.07647420  0.89386798  0.39380958    -0.72400
O600        O  0.12507613  0.92297785  0.45583560    -0.78000
O601        O  0.08012704  0.94436162  0.35548053    -0.76200
O602        O  0.16124520  0.92602130  0.38638155    -1.12400
O603        O  0.14992339  0.97229273  0.32339437    -0.71600
C604        C  0.17003342  0.94709499  0.30248584     0.99200
C605        C  0.22919636  0.89174553  0.44433310     0.95600
Al606      Al  0.13657104  0.88808938  0.41428302     1.55600
O607        O  0.23444432  0.97447645  0.36871456    -0.76200
C608        C  0.05854557  0.91651116  0.36925278     0.99700
C609        C  0.18675368  0.83724615  0.36814780     0.94600
O610        O  0.21599409  0.86389829  0.36564829    -0.81500
O611        O  0.19343190  0.57112832  0.67719987    -0.81000
C612        C  0.10953036  0.51570441  0.54521162     0.98400
O613        O  0.12125742  0.50384757  0.57795530    -0.70100
O614        O  0.17414806  0.50012359  0.63855356    -0.73700
Al615      Al  0.12281534  0.53307367  0.62403581     1.49000
C616        C  0.21556326  0.50033292  0.62992176     0.93600
O617        O  0.23669396  0.59824877  0.57815904    -0.79900
O618        O  0.15940271  0.64778150  0.57876416    -0.73500
Al619      Al  0.20922627  0.58313894  0.62517165     1.90100
O620        O  0.18463458  0.58527092  0.53382690    -0.72500
O621        O  0.08134867  0.61415627  0.58789152    -0.72400
O622        O  0.10507917  0.55232787  0.53867651    -0.78000
O623        O  0.06470246  0.55779773  0.61413172    -0.76200
O624        O  0.15542961  0.57127993  0.60409401    -1.12400
O625        O  0.12108555  0.55785056  0.67252216    -0.71600
C626        C  0.15588848  0.56483456  0.69269601     0.99200
C627        C  0.22389992  0.59643406  0.54329890     0.95600
Al628      Al  0.13408993  0.59757249  0.56333839     1.55600
O629        O  0.23316514  0.53117386  0.61702888    -0.76200
C630        C  0.05365276  0.59246183  0.60404002     0.99700
C631        C  0.17987549  0.65986801  0.60896686     0.94600
O632        O  0.19147625  0.63609277  0.63518046    -0.81500
O633        O  0.28183309  0.61327905  0.36016176    -0.81000
C634        C  0.37870762  0.72505534  0.44918692     0.98400
O635        O  0.38279869  0.68790392  0.45308601    -0.70100
O636        O  0.30614809  0.65211585  0.46090342    -0.73700
Al637      Al  0.35319433  0.64412869  0.42652785     1.49000
C638        C  0.26464304  0.64734772  0.45419934     0.93600
O639        O  0.25174278  0.71981631  0.38278390    -0.79900
O640        O  0.35598998  0.68919937  0.31920992    -0.73500
Al641      Al  0.27110969  0.66649357  0.37276468     1.90100
O642        O  0.31077776  0.74733400  0.35797803    -0.72500
O643        O  0.41843832  0.68817357  0.37493977    -0.72400
O644        O  0.36669108  0.73951833  0.41724967    -0.78000
O645        O  0.40489389  0.63006793  0.39798858    -0.76200
O646        O  0.32806096  0.67423597  0.38967813    -1.12400
O647        O  0.32674779  0.59540466  0.40822634    -0.71600
C648        C  0.29910595  0.58694730  0.38114949     0.99200
C649        C  0.27028635  0.74936420  0.36827083     0.95600
Al650      Al  0.36034555  0.71264920  0.36916200     1.55600
O651        O  0.24766869  0.65208883  0.42105207    -0.76200
C652        C  0.43156723  0.65376003  0.38318071     0.99700
C653        C  0.31887665  0.68104904  0.30214190     0.94600
O654        O  0.28287652  0.67746021  0.32046247    -0.81500
O655        O  0.27481598  0.88150759  0.63135812    -0.81000
C656        C  0.37540010  0.76603886  0.55230377     0.98400
O657        O  0.38326738  0.80296654  0.55062202    -0.70100
O658        O  0.31070774  0.84441709  0.53652919    -0.73700
Al659      Al  0.35435913  0.84806174  0.57593037     1.49000
C660        C  0.26840030  0.84530664  0.53777608     0.93600
O661        O  0.24637346  0.77484571  0.60836390    -0.79900
O662        O  0.34715837  0.79915008  0.67976123    -0.73500
Al663      Al  0.26633971  0.82751233  0.61947526     1.90100
O664        O  0.30159959  0.74473517  0.63824470    -0.72500
O665        O  0.41192850  0.79632515  0.62929629    -0.72400
O666        O  0.35891661  0.75127720  0.58198299    -0.78000
O667        O  0.40434950  0.85730276  0.61092090    -0.76200
O668        O  0.32411611  0.81798281  0.60848826    -1.12400
O669        O  0.32856173  0.89816327  0.59253334    -0.71600
C670        C  0.29567457  0.90754048  0.61351721     0.99200
C671        C  0.26210975  0.74466700  0.62459590     0.95600
Al672      Al  0.35245377  0.77676140  0.63024733     1.55600
O673        O  0.24787749  0.83965346  0.56846449    -0.76200
C674        C  0.42825427  0.83000581  0.62518042     0.99700
C675        C  0.31001289  0.80951780  0.69429147     0.94600
O676        O  0.27541979  0.81753212  0.67347369    -0.81500
O677        O  0.70708132  0.67239026  0.32012096    -0.81000
C678        C  0.60774961  0.72083988  0.44880933     0.98400
O679        O  0.60929381  0.73938436  0.41725022    -0.70100
O680        O  0.67418382  0.76218012  0.37393374    -0.73700
Al681      Al  0.62959860  0.72360237  0.36614440     1.49000
C682        C  0.71599879  0.76186943  0.37080857     0.93600
O683        O  0.73703036  0.67977115  0.42618109    -0.79900
O684        O  0.65133830  0.60105881  0.38144305    -0.73500
Al685      Al  0.71964851  0.67624047  0.37337583     1.90100
O686        O  0.68584582  0.63826939  0.44591510    -0.72500
O687        O  0.57618742  0.64498871  0.38931531    -0.72400
O688        O  0.61605805  0.68422979  0.45001547    -0.78000
O689        O  0.57582301  0.69708385  0.35366931    -0.76200
O690        O  0.66080067  0.68198806  0.38401383    -1.12400
O691        O  0.64758408  0.71233684  0.31335883    -0.71600
C692        C  0.67821078  0.69008871  0.29906437     0.99200
C693        C  0.72215746  0.65703228  0.45133220     0.95600
Al694      Al  0.63452953  0.64561136  0.41356973     1.55600
O695        O  0.73686215  0.72976399  0.36880143    -0.76200
C696        C  0.55601873  0.66788914  0.36658218     0.99700
C697        C  0.69237065  0.59319864  0.37511429     0.94600
O698        O  0.72074672  0.62066500  0.37465248    -0.81500
O699        O  0.69891880  0.84567581  0.66633801    -0.81000
C700        C  0.60418238  0.80111500  0.52928468     0.98400
O701        O  0.60396410  0.78241380  0.56075433    -0.70100
O702        O  0.67052662  0.75826357  0.60467607    -0.73700
Al703      Al  0.62427324  0.79596899  0.61310832     1.49000
C704        C  0.71228795  0.75870855  0.61131787     0.93600
O705        O  0.73305936  0.84290382  0.56219960    -0.79900
O706        O  0.64320902  0.91872768  0.60172379    -0.73500
Al707      Al  0.71323663  0.84404872  0.61372282     1.90100
O708        O  0.68155080  0.88374101  0.53875421    -0.72500
O709        O  0.57108898  0.87504526  0.58810176    -0.72400
O710        O  0.61304226  0.83749097  0.52899607    -0.78000
O711        O  0.57001345  0.82350829  0.62460333    -0.76200
O712        O  0.65513999  0.83821611  0.59846082    -1.12400
O713        O  0.64209527  0.80342462  0.66739694    -0.71600
C714        C  0.67157499  0.82509866  0.68480289     0.99200
C715        C  0.71888977  0.86592526  0.53623324     0.95600
Al716      Al  0.62929690  0.87512865  0.56756679     1.55600
O717        O  0.73195519  0.79067827  0.61763347    -0.76200
C718        C  0.55074359  0.85339284  0.61061114     0.99700
C719        C  0.68360533  0.92626168  0.61131943     0.94600
O720        O  0.71223693  0.89892695  0.61436309    -0.81500
O721        O  0.79431809  0.91067204  0.16938828    -0.81000
C722        C  0.88921253  0.95302133  0.03707255     0.98400
O723        O  0.88914706  0.97315963  0.06820557    -0.70100
O724        O  0.81947900  0.99728360  0.10360905    -0.73700
Al725      Al  0.86586659  0.96237465  0.11894492     1.49000
C726        C  0.77851840  0.99694018  0.11100808     0.93600
O727        O  0.76058588  0.91235473  0.06396320    -0.79900
O728        O  0.84945167  0.83708721  0.10885961    -0.73500
Al729      Al  0.77941510  0.91191453  0.11653016     1.90100
O730        O  0.81284322  0.87046623  0.04365708    -0.72500
O731        O  0.92306841  0.88384399  0.10032243    -0.72400
O732        O  0.88080898  0.91656595  0.03712435    -0.78000
O733        O  0.91893276  0.93732717  0.13612379    -0.76200
O734        O  0.83726932  0.91819007  0.10399263    -1.12400
O735        O  0.84561133  0.95818641  0.17223767    -0.71600
C736        C  0.81943385  0.93410635  0.18872894     0.99200
C737        C  0.77572397  0.88857642  0.03876692     0.95600
Al738      Al  0.86456475  0.88045876  0.07544509     1.55600
O739        O  0.76052987  0.96571576  0.12144479    -0.76200
C740        C  0.94084167  0.90821837  0.12388607     0.99700
C741        C  0.80845210  0.82913742  0.11504020     0.94600
O742        O  0.77977056  0.85658715  0.11571000    -0.81500
O743        O  0.80120109  0.56205647  0.81766437    -0.81000
C744        C  0.89111302  0.52967289  0.95618177     0.98400
O745        O  0.87776240  0.50945870  0.92707813    -0.70100
O746        O  0.82684491  0.49083905  0.86553295    -0.73700
Al747      Al  0.87426207  0.52746137  0.87488363     1.49000
C748        C  0.78513047  0.49096047  0.87069929     0.93600
O749        O  0.75993803  0.58979289  0.91854568    -0.79900
O750        O  0.83810123  0.65166990  0.89957147    -0.73500
Al751      Al  0.78440674  0.57528703  0.86976693     1.90100
O752        O  0.81948514  0.60172858  0.95611989    -0.72500
O753        O  0.91696216  0.61464059  0.89082670    -0.72400
O754        O  0.89709696  0.56662809  0.95332499    -0.78000
O755        O  0.93171836  0.55228636  0.87966648    -0.76200
O756        O  0.84107883  0.56973149  0.88849145    -1.12400
O757        O  0.87239239  0.54155907  0.82199472    -0.71600
C758        C  0.83801511  0.55183257  0.80195041     0.99200
C759        C  0.77752998  0.59882467  0.95102482     0.95600
Al760      Al  0.86580791  0.60541527  0.92154559     1.55600
O761        O  0.76539717  0.52262482  0.87962211    -0.76200
C762        C  0.94442438  0.58777160  0.88169654     0.99700
C763        C  0.80735152  0.65768000  0.87460910     0.94600
O764        O  0.78956430  0.62910688  0.85645602    -0.81500
O765        O  0.21410607  0.85626258  0.13251312    -0.81000
C766        C  0.11857951  0.96935959  0.04684737     0.98400
O767        O  0.11235176  0.93250176  0.04307625    -0.70100
O768        O  0.18995154  0.89990932  0.03344175    -0.73700
Al769      Al  0.14410306  0.88942457  0.06740052     1.49000
C770        C  0.23158839  0.89518677  0.03924161     0.93600
O771        O  0.24560492  0.96296139  0.11463617    -0.79900
O772        O  0.14192300  0.93624283  0.17760510    -0.73500
Al773      Al  0.22565476  0.90978917  0.12224376     1.90100
O774        O  0.18635993  0.99263598  0.13839182    -0.72500
O775        O  0.07872845  0.93231382  0.12118333    -0.72400
O776        O  0.13025506  0.98414891  0.07912780    -0.78000
O777        O  0.09412423  0.87422417  0.09614533    -0.76200
O778        O  0.16894552  0.91887088  0.10575729    -1.12400
O779        O  0.17182896  0.84040638  0.08209691    -0.71600
C780        C  0.19745152  0.83052308  0.10980651     0.99200
C781        C  0.22716947  0.99345771  0.12884058     0.95600
Al782      Al  0.13672577  0.95790752  0.12717656     1.55600
O783        O  0.24879783  0.89641270  0.07276578    -0.76200
C784        C  0.06674182  0.89756153  0.11168548     0.99700
C785        C  0.17899350  0.92669098  0.19413259     0.94600
O786        O  0.21410929  0.92012624  0.17511277    -0.81500
O787        O  0.20280680  0.63114060  0.85597189    -0.81000
C788        C  0.12982045  0.50874378  0.94229991     0.98400
O789        O  0.11793720  0.54482480  0.94439911    -0.70100
O790        O  0.18835529  0.58939168  0.95758592    -0.73700
Al791      Al  0.14157980  0.59143935  0.92038880     1.49000
C792        C  0.22829396  0.60047636  0.95281717     0.93600
O793        O  0.25820704  0.53513984  0.88587005    -0.79900
O794        O  0.15317621  0.54203996  0.81395308    -0.73500
Al795      Al  0.22735461  0.58222311  0.87144109     1.90100
O796        O  0.21044136  0.49429492  0.85757027    -0.72500
O797        O  0.09025765  0.53552925  0.86546831    -0.72400
O798        O  0.14929560  0.49526679  0.91278207    -0.78000
O799        O  0.08992956  0.59680657  0.88706255    -0.76200
O800        O  0.17378508  0.56471535  0.88548217    -1.12400
O801        O  0.16057142  0.64379586  0.90559056    -0.71600
C802        C  0.18532640  0.65563869  0.87902847     0.99200
C803        C  0.24922304  0.50136762  0.87220841     0.95600
Al804      Al  0.15242176  0.52039163  0.86413368     1.55600
O805        O  0.24474175  0.60264677  0.92003842    -0.76200
C806        C  0.06968874  0.56772644  0.87156452     0.99700
C807        C  0.18768489  0.55651079  0.79888919     0.94600
O808        O  0.22196305  0.56579591  0.81906860    -0.81500
O809        O  0.30353710  0.67445665  0.18074892    -0.81000
C810        C  0.37556341  0.70873570  0.04142850     0.98400
O811        O  0.36183519  0.72936973  0.06971334    -0.70100
O812        O  0.31801200  0.74544007  0.13412410    -0.73700
Al813      Al  0.36665543  0.71235707  0.12201768     1.49000
C814        C  0.27643264  0.74366710  0.12809893     0.93600
O815        O  0.25460273  0.64365346  0.08265697    -0.79900
O816        O  0.34101197  0.58612403  0.10058955    -0.73500
Al817      Al  0.28229631  0.65978093  0.12992153     1.90100
O818        O  0.31235795  0.63338621  0.04476805    -0.72500
O819        O  0.41673990  0.62883874  0.10887598    -0.72400
O820        O  0.38668108  0.67279484  0.04557112    -0.78000
O821        O  0.42508625  0.69279213  0.11488651    -0.76200
O822        O  0.33658728  0.66790650  0.11019957    -1.12400
O823        O  0.37279649  0.69793692  0.17411998    -0.71600
C824        C  0.34146592  0.68583034  0.19499577     0.99200
C825        C  0.27045621  0.63488007  0.05032448     0.95600
Al826      Al  0.36221708  0.63323758  0.07808446     1.55600
O827        O  0.25835884  0.71131586  0.11911317    -0.76200
C828        C  0.44099739  0.65852509  0.11702631     0.99700
C829        C  0.31122701  0.57868533  0.12449788     0.94600
O830        O  0.29267382  0.60621547  0.14327648    -0.81500
O831        O  0.29267549  0.80116378  0.81515779    -0.81000
C832        C  0.37565371  0.77860911  0.95526880     0.98400
O833        O  0.36032362  0.75675528  0.92799298    -0.70100
O834        O  0.31103258  0.73762567  0.86571498    -0.73700
Al835      Al  0.36153033  0.77024698  0.87512858     1.49000
C836        C  0.26985368  0.74024887  0.87278237     0.93600
O837        O  0.25307425  0.84628525  0.91035404    -0.79900
O838        O  0.33571024  0.89712592  0.88789584    -0.73500
Al839      Al  0.27690718  0.82245292  0.86461539     1.90100
O840        O  0.31273551  0.85507312  0.94858791    -0.72500
O841        O  0.41240405  0.85392014  0.88265799    -0.72400
O842        O  0.38674230  0.81418783  0.94936755    -0.78000
O843        O  0.42079523  0.78973305  0.88061154    -0.76200
O844        O  0.33231005  0.81528719  0.88472264    -1.12400
O845        O  0.36403132  0.78184633  0.82233152    -0.71600
C846        C  0.33071468  0.79200763  0.80116243     0.99200
C847        C  0.27070314  0.85637664  0.94250910     0.95600
Al848      Al  0.35986287  0.85202627  0.91430140     1.55600
O849        O  0.25287132  0.77319938  0.88172365    -0.76200
C850        C  0.43642781  0.82366392  0.87610445     0.99700
C851        C  0.30762503  0.90113624  0.86031842     0.94600
O852        O  0.29004799  0.87168136  0.84383598    -0.81500
O853        O  0.70304901  0.60976066  0.14380568    -0.81000
C854        C  0.61833356  0.70511760  0.03111928     0.98400
O855        O  0.61168710  0.66860637  0.03494531    -0.70100
O856        O  0.69337570  0.64180928  0.03673889    -0.73700
Al857      Al  0.64485656  0.63239969  0.06737506     1.49000
C858        C  0.73411571  0.63684531  0.04651562     0.93600
O859        O  0.74079086  0.71182927  0.11399404    -0.79900
O860        O  0.62659737  0.69890287  0.16567960    -0.73500
Al861      Al  0.71764371  0.66123947  0.12690085     1.90100
O862        O  0.67852342  0.74608160  0.12158460    -0.72500
O863        O  0.57367104  0.68152814  0.10615159    -0.72400
O864        O  0.63020609  0.72601938  0.05999516    -0.78000
O865        O  0.59354434  0.61958411  0.09527016    -0.76200
O866        O  0.66429701  0.66787802  0.10266830    -1.12400
O867        O  0.67460510  0.58758692  0.08913243    -0.71600
C868        C  0.69448943  0.58155461  0.12086936     0.99200
C869        C  0.72091765  0.74456835  0.11818123     0.95600
Al870      Al  0.62987817  0.70977326  0.11250347     1.55600
O871        O  0.74751325  0.64051111  0.08139694    -0.76200
C872        C  0.56416635  0.64489624  0.10415567     0.99700
C873        C  0.65894604  0.69127923  0.18872232     0.94600
O874        O  0.69719341  0.68040545  0.17634219    -0.81500
O875        O  0.71086687  0.88171598  0.84914741    -0.81000
C876        C  0.61887472  0.77961833  0.94806688     0.98400
O877        O  0.61244144  0.81646889  0.94580078    -0.70100
O878        O  0.69219103  0.84658416  0.94943117    -0.73700
Al879      Al  0.64350275  0.85502794  0.91637682     1.49000
C880        C  0.73373215  0.84694946  0.94284520     0.93600
O881        O  0.74022781  0.77440406  0.86932699    -0.79900
O882        O  0.62741733  0.79470177  0.81488533    -0.73500
Al883      Al  0.71930632  0.82739751  0.86075556     1.90100
O884        O  0.67798939  0.74247736  0.85668090    -0.72500
O885        O  0.57375300  0.80612677  0.87371402    -0.72400
O886        O  0.63124678  0.75987375  0.91887646    -0.78000
O887        O  0.59091154  0.86784110  0.88673088    -0.76200
O888        O  0.66482141  0.82089581  0.88107570    -1.12400
O889        O  0.67096890  0.90142253  0.89785924    -0.71600
C890        C  0.69726929  0.90891132  0.87123300     0.99200
C891        C  0.72015426  0.74246139  0.86196100     0.95600
Al892      Al  0.63055388  0.77945843  0.86718650     1.55600
O893        O  0.74865347  0.84110572  0.90935330    -0.76200
C894        C  0.56198685  0.84203249  0.87764310     0.99700
C895        C  0.65902579  0.80594552  0.79388852     0.94600
O896        O  0.69746206  0.81556214  0.80847698    -0.81500
C897        C  0.61462961  0.72215884  0.99203413    -0.15600
C898        C  0.61390297  0.76132719  0.98624341    -0.30800
H899        H  0.61508575  0.70192633  0.96745763     0.13400
H900        H  0.61187600  0.78128730  0.01095467     0.14000
C901        C  0.48354445  0.82512062  0.86403226    -0.15600
C902        C  0.51336923  0.85262505  0.87577547    -0.30800
H903        H  0.49610320  0.79787058  0.85097557     0.13400
H904        H  0.50200520  0.87986489  0.88953734     0.14000
C905        C  0.51726390  0.63216909  0.10883927    -0.15600
C906        C  0.48893383  0.65598677  0.12744374    -0.30800
H907        H  0.50471527  0.60701037  0.09203589     0.13400
H908        H  0.50264179  0.68123860  0.14353518     0.14000
C909        C  0.37940053  0.76354008  0.99494146    -0.15600
C910        C  0.37723708  0.72484276  0.00227916    -0.30800
H911        H  0.38278521  0.78477642  0.01859670     0.13400
H912        H  0.37616997  0.70366570  0.97842751     0.14000
C913        C  0.28593588  0.96912488  0.87658257    -0.15600
C914        C  0.28900753  0.94007505  0.85009977    -0.30800
H915        H  0.30610245  0.46917056  0.89989626     0.13400
H916        H  0.26809457  0.94170497  0.82401163     0.14000
C917        C  0.20087159  0.69723895  0.87887903    -0.15600
C918        C  0.24392427  0.70336106  0.86901393    -0.30800
H919        H  0.18098028  0.72076230  0.89188223     0.13400
H920        H  0.26368044  0.67826562  0.85870567     0.14000
C921        C  0.25680472  0.61198323  0.98525837    -0.15600
C922        C  0.23975055  0.62440982  0.01854585    -0.30800
H923        H  0.29305364  0.61188059  0.98079167     0.13400
H924        H  0.20346322  0.62565054  0.02265516     0.14000
C925        C  0.26003750  0.88528018  0.00667212    -0.15600
C926        C  0.24194785  0.87058135  0.97355589    -0.30800
H927        H  0.29647600  0.88666616  0.01115482     0.13400
H928        H  0.20550698  0.86844888  0.96938808     0.14000
C929        C  0.11486406  0.99530218  0.01279520    -0.15600
C930        C  0.12201585  0.48187417  0.97490093    -0.30800
H931        H  0.11116945  0.02694731  0.01775949     0.13400
H932        H  0.13101952  0.95013882  0.97293886     0.14000
C933        C  0.25095224  0.78078137  0.13202301    -0.15600
C934        C  0.21193214  0.78882541  0.11330564    -0.30800
H935        H  0.26880323  0.80455220  0.14723659     0.13400
H936        H  0.19523503  0.76616564  0.09571786     0.14000
C937        C  0.24929891  0.53175467  0.13168625    -0.15600
C938        C  0.29375588  0.53765491  0.12636373    -0.30800
H939        H  0.22821485  0.55696449  0.13946669     0.13400
H940        H  0.31497882  0.51321752  0.11688804     0.14000
C941        C  0.99276773  0.59676522  0.87693815    -0.15600
C942        C  0.02069583  0.56868172  0.86322317    -0.30800
H943        H  0.00622033  0.62397282  0.88954553     0.13400
H944        H  0.00637613  0.54184112  0.85047877     0.14000
C945        C  0.76514303  0.62441932  0.01648072    -0.15600
C946        C  0.74855580  0.60827295  0.98330662    -0.30800
H947        H  0.80126076  0.62802390  0.02160490     0.13400
H948        H  0.71240538  0.60401173  0.97885452     0.14000
C949        C  0.74471333  0.70394209  0.85977214    -0.15600
C950        C  0.78882638  0.69841590  0.86947936    -0.30800
H951        H  0.72424530  0.67821831  0.85234171     0.13400
H952        H  0.80912472  0.72344552  0.87922129     0.14000
C953        C  0.76057985  0.95381208  0.86348937    -0.15600
C954        C  0.71611679  0.94925731  0.86922729    -0.30800
H955        H  0.78118704  0.42675451  0.86105761     0.13400
H956        H  0.69590030  0.97426850  0.87889234     0.14000
C957        C  0.98939524  0.90672112  0.13457629    -0.15600
C958        C  0.01912533  0.88517474  0.11459230    -0.30800
H959        H  0.00196578  0.93000963  0.15385305     0.13400
H960        H  0.00720165  0.86164754  0.09532490     0.14000
C961        C  0.89549119  0.97150808  0.99876050    -0.15600
C962        C  0.89747283  0.51122018  0.99483811    -0.30800
H963        H  0.89260913  0.95198116  0.97371073     0.13400
H964        H  0.90072213  0.53087150  0.01975501     0.14000
C965        C  0.74878451  0.88002482  0.00401081    -0.15600
C966        C  0.76424153  0.85686328  0.97518720    -0.30800
H967        H  0.71472834  0.89229270  0.00250655     0.13400
H968        H  0.79898241  0.84625474  0.97510259     0.14000
C969        C  0.75189459  0.53341772  0.10737100    -0.15600
C970        C  0.71508265  0.54269439  0.12751019    -0.30800
H971        H  0.76520766  0.55498432  0.08776570     0.13400
H972        H  0.70265905  0.52347517  0.14955795     0.14000
C973        C  0.74554181  0.78252976  0.11884121    -0.15600
C974        C  0.79102164  0.78796134  0.11830363    -0.30800
H975        H  0.72337307  0.80828186  0.11936254     0.13400
H976        H  0.81409191  0.76287544  0.11758961     0.14000
C977        C  0.67695737  0.82605953  0.72749714    -0.15600
C978        C  0.65038986  0.80654000  0.75149178    -0.30800
H979        H  0.70518210  0.84293041  0.73962164     0.13400
H980        H  0.62123275  0.79062210  0.73983602     0.14000
C981        C  0.68263334  0.68450991  0.25697607    -0.15600
C982        C  0.65173274  0.69636509  0.23063643    -0.30800
H983        H  0.71306107  0.66955369  0.24732572     0.13400
H984        H  0.62050966  0.71018763  0.23993381     0.14000
C985        C  0.59929618  0.74129449  0.48637902    -0.15600
C986        C  0.59749531  0.78081641  0.49110213    -0.30800
H987        H  0.60053099  0.72308217  0.51185017     0.13400
H988        H  0.59767910  0.79916078  0.46574220     0.14000
C989        C  0.30566509  0.81040257  0.73616771    -0.15600
C990        C  0.33649441  0.79314255  0.75945990    -0.30800
H991        H  0.27520527  0.82349365  0.74788936     0.13400
H992        H  0.36694227  0.77998615  0.74777748     0.14000
C993        C  0.50227251  0.86127780  0.61701380    -0.15600
C994        C  0.47677981  0.83469332  0.63442792    -0.30800
H995        H  0.48605999  0.88488784  0.60080084     0.13400
H996        H  0.49323203  0.81032658  0.64938396     0.14000
C997        C  0.31553687  0.67662315  0.26024152    -0.15600
C998        C  0.34890167  0.68626092  0.23693755    -0.30800
H999        H  0.28305803  0.66723803  0.24811233     0.13400
H1000       H  0.38118778  0.69643736  0.24878425     0.14000
C1001       C  0.47963370  0.64255668  0.37895743    -0.15600
C1002       C  0.50713982  0.66443253  0.35785243    -0.30800
H1003       H  0.49364149  0.62003247  0.39781734     0.13400
H1004       H  0.49234145  0.68662097  0.33898103     0.14000
C1005       C  0.38534189  0.75221477  0.48273186    -0.15600
C1006       C  0.38352170  0.73925126  0.51903903    -0.30800
H1007       H  0.38485087  0.78382422  0.47754177     0.13400
H1008       H  0.38109954  0.70767521  0.52394006     0.14000
C1009       C  0.15264589  0.56241490  0.73458975    -0.15600
C1010       C  0.18961726  0.56252253  0.75738362    -0.30800
H1011       H  0.11958981  0.55772973  0.74664758     0.13400
H1012       H  0.22260293  0.56762873  0.74536025     0.14000
C1013       C  0.23333336  0.95559192  0.61993739    -0.15600
C1014       C  0.27793897  0.94893783  0.61437998    -0.30800
H1015       H  0.21189150  0.93057850  0.62602759     0.13400
H1016       H  0.29972759  0.97305258  0.60646501     0.14000
C1017       C  0.23604677  0.70822980  0.62848527    -0.15600
C1018       C  0.19611881  0.70096192  0.61084592    -0.30800
H1019       H  0.25287980  0.68474251  0.64448689     0.13400
H1020       H  0.18019026  0.72308626  0.59259834     0.14000
C1021       C  0.25346878  0.61163392  0.51391355    -0.15600
C1022       C  0.23598090  0.63272820  0.48455836    -0.30800
H1023       H  0.28982393  0.60829672  0.51792646     0.13400
H1024       H  0.19957409  0.63634368  0.48110203     0.14000
C1025       C  0.16220542  0.94834459  0.26035985    -0.15600
C1026       C  0.18321993  0.92341655  0.23623815    -0.30800
H1027       H  0.13917605  0.97064196  0.24887902     0.13400
H1028       H  0.20808557  0.90256256  0.24755148     0.14000
C1029       C  0.25819753  0.87992108  0.47696180    -0.15600
C1030       C  0.24224633  0.85507587  0.50326271    -0.30800
H1031       H  0.29199396  0.89215007  0.48006875     0.13400
H1032       H  0.20761717  0.84457452  0.50134595     0.14000
C1033       C  0.10357646  0.97715200  0.49444740    -0.15600
C1034       C  0.10406581  0.48583388  0.51427234    -0.30800
H1035       H  0.10915044  0.95892335  0.51960642     0.13400
H1036       H  0.11379908  0.45558651  0.52086737     0.14000
C1037       C  0.20236159  0.79531699  0.36598294    -0.15600
C1038       C  0.24716717  0.78786231  0.36358792    -0.30800
H1039       H  0.17881231  0.77151315  0.37077906     0.13400
H1040       H  0.26987200  0.81222840  0.35833254     0.14000
C1041       C  0.23584704  0.54315372  0.37666350    -0.15600
C1042       C  0.28105029  0.54676437  0.37709802    -0.30800
H1043       H  0.21491195  0.56962130  0.37930938     0.13400
H1044       H  0.30324928  0.52107802  0.37821765     0.14000
C1045       C  0.80893851  0.56756362  0.73652662    -0.15600
C1046       C  0.84094577  0.55097944  0.75932904    -0.30800
H1047       H  0.78084757  0.58312140  0.74966358     0.13400
H1048       H  0.87025902  0.53700474  0.74653172     0.14000
C1049       C  0.97876004  0.59139132  0.63290852    -0.15600
C1050       C  0.00700012  0.60711801  0.60798939    -0.30800
H1051       H  0.99189773  0.57036142  0.65378001     0.13400
H1052       H  0.99445206  0.62830302  0.58705001     0.14000
C1053       C  0.73384724  0.62461518  0.51297413    -0.15600
C1054       C  0.74786954  0.65072506  0.48702616    -0.30800
H1055       H  0.70241786  0.60854670  0.50851353     0.13400
H1056       H  0.77931326  0.66678174  0.49147511     0.14000
C1057       C  0.78101572  0.71520547  0.62296642    -0.15600
C1058       C  0.73693152  0.72076613  0.61235575    -0.30800
H1059       H  0.80318546  0.74002680  0.62935754     0.13400
H1060       H  0.71625539  0.69528440  0.60449721     0.14000
C1061       C  0.74426078  0.97233798  0.60605525    -0.15600
C1062       C  0.70078388  0.96684341  0.61527793    -0.30800
H1063       H  0.76392151  0.94767649  0.59464235     0.13400
H1064       H  0.67927015  0.99108585  0.62470460     0.14000
C1065       C  0.81548113  0.93315872  0.23121792    -0.15600
C1066       C  0.84557633  0.94882276  0.25664325    -0.30800
H1067       H  0.78640999  0.91774310  0.24204279     0.13400
H1068       H  0.87580982  0.96280456  0.24629791     0.14000
C1069       C  0.01025206  0.91460890  0.35945786    -0.15600
C1070       C  0.98191528  0.89371376  0.38028164    -0.30800
H1071       H  0.99671124  0.93726599  0.34045260     0.13400
H1072       H  0.99448410  0.87043110  0.39896057     0.14000
C1073       C  0.88872163  0.99317831  0.49456097    -0.15600
C1074       C  0.88212456  0.53057399  0.50178664    -0.30800
H1075       H  0.89354505  0.97441846  0.51941165     0.13400
H1076       H  0.87753552  0.54922057  0.47681230     0.14000
C1077       C  0.73288437  0.89640689  0.47394357    -0.15600
C1078       C  0.74724362  0.87392166  0.50351619    -0.30800
H1079       H  0.69809114  0.90672395  0.47147509     0.13400
H1080       H  0.78142868  0.86190792  0.50424369     0.14000
C1081       C  0.70966371  0.55194288  0.37134271    -0.15600
C1082       C  0.75481698  0.54593414  0.36931147    -0.30800
H1083       H  0.68667984  0.52718049  0.37314647     0.13400
H1084       H  0.77703576  0.57128208  0.36758390     0.14000
C1085       C  0.78463052  0.80370809  0.36792738    -0.15600
C1086       C  0.73951908  0.79997548  0.36889312    -0.30800
H1087       H  0.80666059  0.77799365  0.37027852     0.13400
H1088       H  0.71855250  0.82653863  0.36962104     0.14000
loop_ 
_geom_bond_atom_site_label_1 
_geom_bond_atom_site_label_2 
_geom_bond_distance 
_geom_bond_site_symmetry_2 
_ccdc_geom_bond_type 
O1           C16   1.258       .  A
O1           Al9   1.895       .  S
C2           O12   1.264       .  A
C2            O3   1.262       .  A
C2          C529   1.494       .  S
O3           Al5   1.930       .  S
O4            C6   1.257       .  A
O4           Al5   1.855       .  S
Al5          O13   1.876       .  S
Al5          O15   1.902       .  S
Al5          O14   1.794       .  S
C6           O19   1.268       .  A
C6          C533   1.464       .  S
O7           C17   1.257       .  A
O7           Al9   1.906       .  S
O8           C21   1.262       .  A
O8          Al18   1.903       .  S
Al9          O22   1.940       .  S
Al9          O19   1.937       .  S
Al9          O14   1.791       .  S
O10          C17   1.259       .  A
O10         Al18   1.900       .  S
O11          C20   1.267       .  A
O11         Al18   1.920       .  S
O12         Al18   1.924       .  S
O13          C20   1.255       .  A
O14         Al18   1.783       .  S
O15          C16   1.255       .  A
C16         C541   1.466       .  S
C17        C1082   1.473       .  S
C20         C526   1.463       .  S
C21          O22   1.271       .  A
C21         C522   1.491       .  S
O23          C38   1.253       .  A
O23         Al31   1.852       .  S
C24          O34   1.269       .  A
C24          O25   1.258       .  A
C24         C530   1.492       .  S
O25         Al27   1.889       .  S
O26          C28   1.263       .  A
O26         Al27   1.898       .  S
Al27         O35   1.923       .  S
Al27         O37   1.934       .  S
Al27         O36   1.801       .  S
C28          O41   1.265       .  A
C28         C509   1.461       .  S
O29          C39   1.247       .  A
O29         Al31   1.892       .  S
O30          C43   1.275       .  A
O30         Al40   1.955       .  S
Al31         O44   1.882       .  S
Al31         O41   1.898       .  S
Al31         O36   1.793       .  S
O32          C39   1.247       .  A
O32         Al40   1.868       .  S
O33          C42   1.250       .  A
O33         Al40   1.868       .  S
O34         Al40   1.947       .  S
O35          C42   1.262       .  A
O36         Al40   1.781       .  S
O37          C38   1.266       .  A
C38         C513   1.480       .  S
C39        C1061   1.455   1_545  S
C42         C505   1.474       .  S
C43          O44   1.263       .  A
C43         C501   1.482       .  S
O45          C60   1.266       .  A
O45         Al53   1.913       .  S
C46          O56   1.260       .  A
C46          O47   1.254       .  A
C46         C489   1.472       .  S
O47         Al49   1.896       .  S
O48          C50   1.255       .  A
O48         Al49   1.876       .  S
Al49         O57   1.874       .  S
Al49         O59   1.884       .  S
Al49         O58   1.788       .  S
C50          O63   1.260       .  A
C50        C1041   1.463       .  S
O51          C61   1.266       .  A
O51         Al53   1.913       .  S
O52          C65   1.267       .  A
O52         Al62   1.933       .  S
Al53         O66   1.884       .  S
Al53         O63   1.919       .  S
Al53         O58   1.785       .  S
O54          C61   1.261       .  A
O54         Al62   1.880       .  S
O55          C64   1.264       .  A
O55         Al62   1.912       .  S
O56         Al62   1.900       .  S
O57          C64   1.254       .  A
O58         Al62   1.786       .  S
O59          C60   1.256       .  A
C60         C481   1.465       .  S
C61         C485   1.468       .  S
C64         C525   1.464       .  S
C65          O66   1.259       .  A
C65         C493   1.492       .  S
O67          C82   1.269       .  A
O67         Al75   1.927       .  S
C68          O78   1.266       .  A
C68          O69   1.262       .  A
C68         C490   1.481       .  S
O69         Al71   1.891       .  S
O70          C72   1.266       .  A
O70         Al71   1.933   1_565  S
Al71         O79   1.931       .  S
Al71         O81   1.887       .  S
Al71         O80   1.778       .  S
C72          O85   1.261   1_565  A
C72        C1013   1.487       .  S
O73          C83   1.265       .  A
O73         Al75   1.935       .  S
O74          C87   1.266       .  A
O74         Al84   1.931       .  S
Al75         O88   1.890       .  S
Al75         O85   1.914       .  S
Al75         O80   1.784       .  S
O76          C83   1.256       .  A
O76         Al84   1.858       .  S
O77          C86   1.257       .  A
O77         Al84   1.892       .  S
O78         Al84   1.937       .  S
O79          C86   1.268       .  A
O80         Al84   1.787       .  S
O81          C82   1.260       .  A
C82         C465   1.473       .  S
C83         C477   1.466       .  S
C86         C506   1.477       .  S
C87          O88   1.258       .  A
C87         C474   1.476       .  S
O89         C104   1.259       .  A
O89         Al97   1.879       .  S
C90         O100   1.261       .  A
C90          O91   1.270       .  A
C90         C461   1.484       .  S
O91         Al93   1.934       .  S
O92          C94   1.254       .  A
O92         Al93   1.870       .  S
Al93        O101   1.891       .  S
Al93        O103   1.920       .  S
Al93        O102   1.793       .  S
C94         O107   1.258       .  A
C94         C478   1.460       .  S
O95         C105   1.261       .  A
O95         Al97   1.917       .  S
O96         C109   1.265       .  A
O96        Al106   1.897       .  S
Al97        O110   1.910       .  S
Al97        O107   1.902       .  S
Al97        O102   1.790       .  S
O98         C105   1.262       .  A
O98        Al106   1.914       .  S
O99         C108   1.262       .  A
O99        Al106   1.920       .  S
O100       Al106   1.896       .  S
O101        C108   1.253       .  A
O102       Al106   1.786       .  S
O103        C104   1.262       .  A
C104        C498   1.466       .  S
C105        C494   1.478       .  S
C108        C457   1.480       .  S
C109        O110   1.263       .  A
C109        C453   1.468       .  S
O111        C126   1.259       .  A
O111       Al119   1.880       .  S
C112        O122   1.260       .  A
C112        O113   1.273       .  A
C112        C462   1.481       .  S
O113       Al115   1.956       .  S
O114        C116   1.257       .  A
O114       Al115   1.878       .  S
Al115       O123   1.913       .  S
Al115       O125   1.955       .  S
Al115       O124   1.790       .  S
C116        O129   1.260       .  A
C116        C486   1.458       .  S
O117        C127   1.256       .  A
O117       Al119   1.897       .  S
O118        C131   1.260       .  A
O118       Al128   1.878       .  S
Al119       O132   1.924       .  S
Al119       O129   1.906       .  S
Al119       O124   1.780       .  S
O120        C127   1.265       .  A
O120       Al128   1.933       .  S
O121        C130   1.261       .  A
O121       Al128   1.912       .  S
O122       Al128   1.880       .  S
O123        C130   1.263       .  A
O124       Al128   1.783       .  S
O125        C126   1.269       .  A
C126        C470   1.488       .  S
C127        C473   1.476       .  S
C130        C450   1.481       .  S
C131        O132   1.265       .  A
C131        C445   1.464       .  S
O133        C148   1.263       .  A
O133       Al141   1.875       .  S
C134        O144   1.261       .  A
C134        O135   1.274       .  A
C134        C441   1.497       .  S
O135       Al137   1.957       .  S
O136        C138   1.245       .  A
O136       Al137   1.876       .  S
Al137       O145   1.871       .  S
Al137       O147   1.965       .  S
Al137       O146   1.786       .  S
C138        O151   1.248       .  A
C138        C542   1.471       .  S
O139        C149   1.264       .  A
O139       Al141   1.896       .  S
O140        C153   1.266       .  A
O140       Al150   1.936       .  S
Al141       O154   1.878       .  S
Al141       O151   1.897       .  S
Al141       O146   1.795       .  S
O142        C149   1.263       .  A
O142       Al150   1.896       .  S
O143        C152   1.257       .  A
O143       Al150   1.909       .  S
O144       Al150   1.893       .  S
O145        C152   1.248       .  A
O146       Al150   1.804       .  S
O147        C148   1.280       .  A
C148        C437   1.482       .  S
C149        C510   1.461       .  S
C152        C458   1.477       .  S
C153        O154   1.256       .  A
C153        C537   1.488       .  S
O155        C170   1.263       .  A
O155       Al163   1.881       .  S
C156        O166   1.260       .  A
C156        O157   1.273       .  A
C156        C442   1.496       .  S
O157       Al159   1.954       .  S
O158        C160   1.250       .  A
O158       Al159   1.882       .  S
Al159       O167   1.903       .  S
Al159       O169   1.963       .  S
Al159       O168   1.790       .  S
C160        O173   1.243       .  A
C160        C514   1.464       .  S
O161        C171   1.264       .  A
O161       Al163   1.898       .  S
O162        C175   1.260       .  A
O162       Al172   1.923       .  S
Al163       O176   1.852       .  S
Al163       O173   1.882       .  S
Al163       O168   1.799       .  S
O164        C171   1.261       .  A
O164       Al172   1.898       .  S
O165        C174   1.252       .  A
O165       Al172   1.890       .  S
O166       Al172   1.891       .  S
O167        C174   1.256       .  A
O168       Al172   1.807       .  S
O169        C170   1.279       .  A
C170        C433   1.485       .  S
C171        C534   1.463       .  S
C174        C449   1.484       .  S
C175        O176   1.252       .  A
C175        C518   1.472       .  S
O177        C192   1.264       .  A
O177       Al185   1.883       .  S
C178        O188   1.259       .  A
C178        O179   1.270       .  A
C178        C417   1.496       .  S
O179       Al181   1.950       .  S
O180        C182   1.246       .  A
O180       Al181   1.876       .  S
Al181       O189   1.873       .  S
Al181       O191   1.967       .  S
Al181       O190   1.789       .  S
C182        O195   1.250       .  A
C182        C969   1.465       .  S
O183        C193   1.267       .  A
O183       Al185   1.900       .  S
O184        C197   1.268       .  A
O184       Al194   1.945       .  S
Al185       O198   1.872       .  S
Al185       O195   1.906       .  S
Al185       O190   1.793       .  S
O186        C193   1.262       .  A
O186       Al194   1.896       .  S
O187        C196   1.261       .  A
O187       Al194   1.918       .  S
O188       Al194   1.893       .  S
O189        C196   1.251       .  A
O190       Al194   1.804       .  S
O191        C192   1.278       .  A
C192        C521   1.487       .  S
C193        C421   1.460       .  S
C196        C413   1.477       .  S
C197        O198   1.254       .  A
C197        C430   1.495       .  S
O199        C214   1.275       .  A
O199       Al207   1.939       .  S
C200        O210   1.269       .  A
C200        O201   1.270       .  A
C200        C418   1.499       .  S
O201       Al203   1.928       .  S
O202        C204   1.251       .  A
O202       Al203   1.895   1_565  S
Al203       O211   1.899       .  S
Al203       O213   1.905       .  S
Al203       O212   1.792       .  S
C204        O217   1.254   1_565  A
C204        C953   1.481       .  S
O205        C215   1.267       .  A
O205       Al207   1.918       .  S
O206        C219   1.261       .  A
O206       Al216   1.928       .  S
Al207       O220   1.895       .  S
Al207       O217   1.912       .  S
Al207       O212   1.792       .  S
O208        C215   1.255       .  A
O208       Al216   1.858       .  S
O209        C218   1.260       .  A
O209       Al216   1.912       .  S
O210       Al216   1.944       .  S
O211        C218   1.260       .  A
O212       Al216   1.798       .  S
O213        C214   1.268       .  A
C214        C502   1.486       .  S
C215        C402   1.462       .  S
C218        C397   1.480       .  S
C219        O220   1.257       .  A
C219        C406   1.494       .  S
O221        C236   1.259       .  A
O221       Al229   1.882       .  S
C222        O232   1.264       .  A
C222        O223   1.266       .  A
C222        C385   1.486       .  S
O223       Al225   1.926       .  S
O224        C226   1.252       .  A
O224       Al225   1.852       .  S
Al225       O233   1.889       .  S
Al225       O235   1.916       .  S
Al225       O234   1.797       .  S
C226        O239   1.256       .  A
C226        C381   1.449       .  S
O227        C237   1.260       .  A
O227       Al229   1.918       .  S
O228        C241   1.269       .  A
O228       Al238   1.906       .  S
Al229       O242   1.889       .  S
Al229       O239   1.889       .  S
Al229       O234   1.791       .  S
O230        C237   1.259       .  A
O230       Al238   1.913       .  S
O231        C240   1.263       .  A
O231       Al238   1.927       .  S
O232       Al238   1.910       .  S
O233        C240   1.253       .  A
O234       Al238   1.785       .  S
O235        C236   1.259       .  A
C236        C390   1.480       .  S
C237        C937   1.485       .  S
C240        C414   1.480       .  S
C241        O242   1.259       .  A
C241        C482   1.464       .  S
O243        C258   1.261       .  A
O243       Al251   1.885       .  S
C244        O254   1.265   1_545  A
C244        O245   1.268       .  A
C244        C386   1.488   1_545  S
O245       Al247   1.939       .  S
O246        C248   1.259       .  A
O246       Al247   1.875       .  S
Al247       O255   1.902       .  S
Al247       O257   1.939       .  S
Al247       O256   1.790       .  S
C248        O261   1.256       .  A
C248        C377   1.447       .  S
O249        C259   1.254   1_545  A
O249       Al251   1.887       .  S
O250        C263   1.263       .  A
O250       Al260   1.904       .  S
Al251       O264   1.907       .  S
Al251       O261   1.886       .  S
Al251       O256   1.779       .  S
O252        C259   1.266       .  A
O252       Al260   1.938   1_565  S
O253        C262   1.264       .  A
O253       Al260   1.914       .  S
O254       Al260   1.909   1_565  S
O255        C262   1.262       .  A
O256       Al260   1.778       .  S
O257        C258   1.264       .  A
C258        C373   1.482       .  S
C259        C913   1.472       .  S
C262        C398   1.473       .  S
C263        O264   1.260       .  A
C263        C466   1.469       .  S
O265        C280   1.273       .  A
O265       Al273   1.924       .  S
C266        O276   1.267       .  A
C266        O267   1.269       .  A
C266        C366   1.484       .  S
O267       Al269   1.923       .  S
O268        C270   1.246       .  A
O268       Al269   1.871       .  S
Al269       O277   1.872       .  S
Al269       O279   1.888       .  S
Al269       O278   1.788       .  S
C270        O283   1.254       .  A
C270        C389   1.467       .  S
O271        C281   1.260       .  A
O271       Al273   1.896       .  S
O272        C285   1.257       .  A
O272       Al282   1.908       .  S
Al273       O286   1.899       .  S
Al273       O283   1.921       .  S
Al273       O278   1.788       .  S
O274        C281   1.260       .  A
O274       Al282   1.858       .  S
O275        C284   1.262       .  A
O275       Al282   1.916       .  S
O276       Al282   1.928       .  S
O277        C284   1.252       .  A
O278       Al282   1.786       .  S
O279        C280   1.265       .  A
C280        C454   1.471       .  S
C281        C378   1.456       .  S
C284        C362   1.458       .  S
C285        O286   1.260       .  A
C285        C394   1.487       .  S
O287        C302   1.269       .  A
O287       Al295   1.908       .  S
C288        O298   1.272       .  A
C288        O289   1.271       .  A
C288        C365   1.486       .  S
O289       Al291   1.910       .  S
O290        C292   1.251       .  A
O290       Al291   1.881       .  S
Al291       O299   1.877       .  S
Al291       O301   1.896       .  S
Al291       O300   1.779       .  S
C292        O305   1.257       .  A
C292        C374   1.473       .  S
O293        C303   1.260       .  A
O293       Al295   1.898       .  S
O294        C307   1.263       .  A
O294       Al304   1.923       .  S
Al295       O308   1.882       .  S
Al295       O305   1.926       .  S
Al295       O300   1.786       .  S
O296        C303   1.257       .  A
O296       Al304   1.852       .  S
O297        C306   1.263       .  A
O297       Al304   1.933       .  S
O298       Al304   1.943       .  S
O299        C306   1.252       .  A
O300       Al304   1.788       .  S
O301        C302   1.267       .  A
C302        C446   1.467       .  S
C303        C382   1.452       .  S
C306        C357   1.468       .  S
C307        O308   1.254       .  A
C307        C370   1.478       .  S
O309        C324   1.257       .  A
O309       Al317   1.902       .  S
C310        O320   1.262       .  A
C310        O311   1.262       .  A
C310        C353   1.484   1_554  S
O311       Al313   1.927       .  S
O312        C314   1.256       .  A
O312       Al313   1.845       .  S
Al313       O321   1.880       .  S
Al313       O323   1.908       .  S
Al313       O322   1.790       .  S
C314        O327   1.272       .  A
C314        C401   1.466       .  S
O315        C325   1.259       .  A
O315       Al317   1.912       .  S
O316        C329   1.260       .  A
O316       Al326   1.894       .  S
Al317       O330   1.941       .  S
Al317       O327   1.955       .  S
Al317       O322   1.785       .  S
O318        C325   1.264       .  A
O318       Al326   1.915       .  S
O319        C328   1.271       .  A
O319       Al326   1.926       .  S
O320       Al326   1.910       .  S
O321        C328   1.256       .  A
O322       Al326   1.774       .  S
O323        C324   1.258       .  A
C324        C426   1.464       .  S
C325        C429   1.479       .  S
C328        C361   1.468       .  S
C329        O330   1.271       .  A
C329        C438   1.487       .  S
O331        C346   1.258       .  A
O331       Al339   1.899       .  S
C332        O342   1.265       .  A
C332        O333   1.264       .  A
C332        C354   1.482       .  S
O333       Al335   1.927       .  S
O334        C336   1.256       .  A
O334       Al335   1.845       .  S
Al335       O343   1.897       .  S
Al335       O345   1.900       .  S
Al335       O344   1.794       .  S
C336        O349   1.269       .  A
C336        C422   1.464       .  S
O337        C347   1.256       .  A
O337       Al339   1.918       .  S
O338        C351   1.263       .  A
O338       Al348   1.890       .  S
Al339       O352   1.953       .  S
Al339       O349   1.937       .  S
Al339       O344   1.791       .  S
O340        C347   1.258       .  A
O340       Al348   1.919       .  S
O341        C350   1.268       .  A
O341       Al348   1.924       .  S
O342       Al348   1.915       .  S
O343        C350   1.257       .  A
O344       Al348   1.788       .  S
O345        C346   1.254       .  A
C346        C410   1.479       .  S
C347        C405   1.493       .  S
C350        C358   1.481       .  S
C351        O352   1.277       .  A
C351        C434   1.487       .  S
C353        C354   1.343       .  D
C353        H355   1.087       .  S
C354        H356   1.087   1_556  S
C357        C358   1.338       .  D
C357        H359   1.088       .  S
C358        H360   1.086       .  S
C361        C362   1.332       .  D
C361        H363   1.087       .  S
C362        H364   1.089       .  S
C365        C366   1.343   1_556  D
C365        H367   1.086   1_556  S
C366        H368   1.087   1_554  S
C369        C803   1.480       .  S
C369        C370   1.345       .  D
C369        H915   1.086       .  S
C370        H372   1.087       .  S
H371        C913   1.087       .  S
C373        C374   1.345       .  D
C373        H375   1.086       .  S
C374        H376   1.088       .  S
C377        C378   1.336   1_556  D
C377        H379   1.087       .  S
C378        H380   1.087       .  S
C381        C382   1.341   1_554  D
C381        H383   1.087       .  S
C382        H384   1.087       .  S
C385        C930   1.352   1_554  D
C385        H387   1.086       .  S
C386        C929   1.352   1_556  D
C386        H932   1.087       .  S
H388        C930   1.087       .  S
C389        C390   1.341       .  D
C389        H391   1.087       .  S
C390        H392   1.086       .  S
C393        C781   1.485   1_545  S
C393        C394   1.349       .  D
C393        H395   1.087       .  S
C394        H396   1.086       .  S
C397        C398   1.347   1_655  D
C397        H399   1.086   1_655  S
C398        H400   1.087       .  S
C401        C402   1.352   1_554  D
C401        H403   1.086       .  S
C402        H404   1.087       .  S
C405        C406   1.355       .  D
C405        H407   1.087       .  S
C406        H408   1.086       .  S
C409        C748   1.481       .  S
C409        C410   1.346       .  D
C409        H955   1.088       .  S
C410        H412   1.086       .  S
H411        C953   1.088       .  S
C413        C414   1.341   1_655  D
C413        H415   1.087   1_655  S
C414        H416   1.087       .  S
C417        C962   1.349   1_554  D
C417        H419   1.087   1_554  S
C418        C961   1.349   1_545  D
C418        H420   1.086   1_556  S
C421        C422   1.350   1_554  D
C421        H423   1.087       .  S
C422        H424   1.086       .  S
C425        C726   1.466   1_545  S
C425        C426   1.343       .  D
C425        H427   1.088       .  S
C426        H428   1.086       .  S
C429        C430   1.359       .  D
C429        H431   1.087       .  S
C430        H432   1.085       .  S
C433        C434   1.341       .  D
C433        H435   1.087       .  S
C434        H436   1.087       .  S
C437        C438   1.341       .  D
C437        H439   1.087       .  S
C438        H440   1.087       .  S
C441        C442   1.346       .  D
C441        H443   1.087       .  S
C442        H444   1.087       .  S
C445        C446   1.344       .  D
C445        H447   1.087       .  S
C446        H448   1.087       .  S
C449        C450   1.344       .  D
C449        H451   1.087       .  S
C450        H452   1.087       .  S
C453        C454   1.339       .  D
C453        H455   1.087       .  S
C454        H456   1.087       .  S
C457        C458   1.342       .  D
C457        H459   1.087       .  S
C458        H460   1.087       .  S
C461        C462   1.345       .  D
C461        H463   1.086       .  S
C462        H464   1.087       .  S
C465        C466   1.339       .  D
C465        H467   1.087       .  S
C466        H468   1.087       .  S
C469        C616   1.482       .  S
C469        C470   1.354       .  D
C469        H471   1.087       .  S
C470        H472   1.086       .  S
C473        C474   1.343       .  D
C473        H475   1.089       .  S
C474        H476   1.090       .  S
C477        C478   1.347       .  D
C477        H479   1.086       .  S
C478        H480   1.087       .  S
C481        C482   1.330       .  D
C481        H483   1.088       .  S
C482        H484   1.087       .  S
C485        C486   1.346       .  D
C485        H487   1.086       .  S
C486        H488   1.087       .  S
C489       C1034   1.337       .  D
C489        H491   1.087       .  S
C490       C1033   1.346   1_545  D
C490        H492   1.087       .  S
C493        C494   1.354       .  D
C493        H495   1.086       .  S
C494        H496   1.087       .  S
C497        C594   1.466       .  S
C497        C498   1.342       .  D
C497        H499   1.089       .  S
C498        H500   1.086       .  S
C501        C502   1.344       .  D
C501        H503   1.087       .  S
C502        H504   1.086       .  S
C505        C506   1.339   1_655  D
C505        H507   1.088       .  S
C506        H508   1.087   1_455  S
C509        C510   1.346       .  D
C509        H511   1.087       .  S
C510        H512   1.087       .  S
C513        C514   1.357       .  D
C513        H515   1.085       .  S
C514        H516   1.087       .  S
C517        C583   1.456       .  S
C517        C518   1.348       .  D
C517        H519   1.089       .  S
C518        H520   1.085       .  S
C521        C522   1.345       .  D
C521        H523   1.087       .  S
C522        H524   1.086       .  S
C525        C526   1.335   1_455  D
C525        H527   1.088   1_455  S
C526        H528   1.087       .  S
C529       C1074   1.346       .  D
C529        H531   1.086       .  S
C530       C1073   1.346   1_545  D
C530        H532   1.087       .  S
C533        C534   1.348       .  D
C533        H535   1.086       .  S
C534        H536   1.087       .  S
C537        C538   1.355       .  D
C537        H539   1.086       .  S
C538        C561   1.474       .  S
C538        H540   1.087       .  S
C541        C542   1.343       .  D
C541        H543   1.086       .  S
C542        H544   1.089       .  S
O545        C560   1.258       .  A
O545       Al553   1.895       .  S
C546        O556   1.264       .  A
C546        O547   1.261       .  A
C546       C1073   1.493       .  S
O547       Al549   1.927       .  S
O548        C550   1.257       .  A
O548       Al549   1.852       .  S
Al549       O557   1.877       .  S
Al549       O559   1.898       .  S
Al549       O558   1.795       .  S
C550        O563   1.268       .  A
C550       C1077   1.461       .  S
O551        C561   1.255   1_565  A
O551       Al553   1.903       .  S
O552        C565   1.263       .  A
O552       Al562   1.904       .  S
Al553       O566   1.938       .  S
Al553       O563   1.933       .  S
Al553       O558   1.794       .  S
O554        C561   1.259       .  A
O554       Al562   1.901   1_545  S
O555        C564   1.268       .  A
O555       Al562   1.920       .  S
O556       Al562   1.926       .  S
O557        C564   1.255       .  A
O558       Al562   1.784       .  S
O559        C560   1.254       .  A
C560       C1085   1.467       .  S
C564       C1070   1.465       .  S
C565        O566   1.270       .  A
C565       C1066   1.491       .  S
O567        C582   1.255       .  A
O567       Al575   1.866       .  S
C568        O578   1.269       .  A
C568        O569   1.257       .  A
C568       C1074   1.492       .  S
O569       Al571   1.888       .  S
O570        C572   1.262       .  A
O570       Al571   1.890       .  S
Al571       O579   1.916       .  S
Al571       O581   1.937       .  S
Al571       O580   1.798       .  S
C572        O585   1.266       .  A
C572       C1053   1.457       .  S
O573        C583   1.249       .  A
O573       Al575   1.900       .  S
O574        C587   1.275       .  A
O574       Al584   1.955       .  S
Al575       O588   1.886       .  S
Al575       O585   1.899       .  S
Al575       O580   1.793       .  S
O576        C583   1.247       .  A
O576       Al584   1.865       .  S
O577        C586   1.249       .  A
O577       Al584   1.868       .  S
O578       Al584   1.949       .  S
O579        C586   1.262       .  A
O580       Al584   1.781       .  S
O581        C582   1.269       .  A
C582       C1057   1.486       .  S
C586       C1049   1.471       .  S
C587        O588   1.264       .  A
C587       C1045   1.483       .  S
O589        C604   1.267       .  A
O589       Al597   1.900       .  S
C590        O600   1.257       .  A
C590        O591   1.263       .  A
C590       C1033   1.478       .  S
O591       Al593   1.921       .  S
O592        C594   1.250       .  A
O592       Al593   1.872   1_545  S
Al593       O601   1.863       .  S
Al593       O603   1.923       .  S
Al593       O602   1.784       .  S
C594        O607   1.258   1_545  A
O595        C605   1.269       .  A
O595       Al597   1.913       .  S
O596        C609   1.264       .  A
O596       Al606   1.924       .  S
Al597       O610   1.889       .  S
Al597       O607   1.924       .  S
Al597       O602   1.788       .  S
O598        C605   1.262       .  A
O598       Al606   1.882       .  S
O599        C608   1.261       .  A
O599       Al606   1.909       .  S
O600       Al606   1.887       .  S
O601        C608   1.250       .  A
O602       Al606   1.791       .  S
O603        C604   1.266       .  A
C604       C1025   1.479       .  S
C605       C1029   1.465       .  S
C608       C1069   1.462       .  S
C609        O610   1.259       .  A
C609       C1037   1.489       .  S
O611        C626   1.267       .  A
O611       Al619   1.930       .  S
C612        O622   1.268       .  A
C612        O613   1.254       .  A
C612       C1034   1.471       .  S
O613       Al615   1.869       .  S
O614        C616   1.269       .  A
O614       Al615   1.939       .  S
Al615       O623   1.932       .  S
Al615       O625   1.873       .  S
Al615       O624   1.778       .  S
C616        O629   1.262       .  A
O617        C627   1.262       .  A
O617       Al619   1.922       .  S
O618        C631   1.263       .  A
O618       Al628   1.923       .  S
Al619       O632   1.892       .  S
Al619       O629   1.909       .  S
Al619       O624   1.781       .  S
O620        C627   1.258       .  A
O620       Al628   1.875       .  S
O621        C630   1.253       .  A
O621       Al628   1.875       .  S
O622       Al628   1.937       .  S
O623        C630   1.267       .  A
O624       Al628   1.785       .  S
O625        C626   1.253       .  A
C626       C1009   1.466       .  S
C627       C1021   1.463       .  S
C630       C1050   1.472       .  S
C631        O632   1.265       .  A
C631       C1018   1.473       .  S
O633        C648   1.258       .  A
O633       Al641   1.872       .  S
C634        O644   1.263       .  A
C634        O635   1.270       .  A
C634       C1005   1.483       .  S
O635       Al637   1.935       .  S
O636        C638   1.255       .  A
O636       Al637   1.873       .  S
Al637       O645   1.898       .  S
Al637       O647   1.921       .  S
Al637       O646   1.794       .  S
C638        O651   1.258       .  A
C638       C1022   1.465       .  S
O639        C649   1.261       .  A
O639       Al641   1.917       .  S
O640        C653   1.265       .  A
O640       Al650   1.900       .  S
Al641       O654   1.904       .  S
Al641       O651   1.905       .  S
Al641       O646   1.790       .  S
O642        C649   1.260       .  A
O642       Al650   1.908       .  S
O643        C652   1.259       .  A
O643       Al650   1.910       .  S
O644       Al650   1.896       .  S
O645        C652   1.254       .  A
O646       Al650   1.786       .  S
O647        C648   1.263       .  A
C648       C1042   1.467       .  S
C649       C1038   1.476       .  S
C652       C1001   1.479       .  S
C653        O654   1.262       .  A
C653        C997   1.464       .  S
O655        C670   1.259       .  A
O655       Al663   1.882       .  S
C656        O666   1.264       .  A
C656        O657   1.274       .  A
C656       C1006   1.481       .  S
O657       Al659   1.951       .  S
O658        C660   1.254       .  A
O658       Al659   1.863       .  S
Al659       O667   1.916       .  S
Al659       O669   1.939       .  S
Al659       O668   1.794       .  S
C660        O673   1.259       .  A
C660       C1030   1.453       .  S
O661        C671   1.255       .  A
O661       Al663   1.910       .  S
O662        C675   1.266       .  A
O662       Al672   1.880       .  S
Al663       O676   1.926       .  S
Al663       O673   1.894       .  S
Al663       O668   1.787       .  S
O664        C671   1.250       .  A
O664       Al672   1.888       .  S
O665        C674   1.252       .  A
O665       Al672   1.885       .  S
O666       Al672   1.888       .  S
O667        C674   1.260       .  A
O668       Al672   1.790       .  S
O669        C670   1.266       .  A
C670       C1014   1.492       .  S
C671       C1017   1.468       .  S
C674        C994   1.472       .  S
C675        O676   1.269       .  A
C675        C989   1.465       .  S
O677        C692   1.265       .  A
O677       Al685   1.883       .  S
C678        O688   1.262       .  A
C678        O679   1.275       .  A
C678        C985   1.494       .  S
O679       Al681   1.955       .  S
O680        C682   1.244       .  A
O680       Al681   1.873       .  S
Al681       O689   1.870       .  S
Al681       O691   1.955       .  S
Al681       O690   1.789       .  S
C682        O695   1.247       .  A
C682       C1086   1.472       .  S
O683        C693   1.263       .  A
O683       Al685   1.897       .  S
O684        C697   1.265       .  A
O684       Al694   1.931       .  S
Al685       O698   1.880       .  S
Al685       O695   1.893       .  S
Al685       O690   1.797       .  S
O686        C693   1.260       .  A
O686       Al694   1.885       .  S
O687        C696   1.253       .  A
O687       Al694   1.902       .  S
O688       Al694   1.893       .  S
O689        C696   1.247       .  A
O690       Al694   1.807       .  S
O691        C692   1.279       .  A
C692        C981   1.482       .  S
C693       C1054   1.458       .  S
C696       C1002   1.475       .  S
C697        O698   1.257       .  A
C697       C1081   1.487       .  S
O699        C714   1.264       .  A
O699       Al707   1.889       .  S
C700        O710   1.259       .  A
C700        O701   1.273       .  A
C700        C986   1.495       .  S
O701       Al703   1.952       .  S
O702        C704   1.251       .  A
O702       Al703   1.889       .  S
Al703       O711   1.898       .  S
Al703       O713   1.961       .  S
Al703       O712   1.788       .  S
C704        O717   1.245       .  A
C704       C1058   1.472       .  S
O705        C715   1.264       .  A
O705       Al707   1.899       .  S
O706        C719   1.259       .  A
O706       Al716   1.919       .  S
Al707       O720   1.855       .  S
Al707       O717   1.890       .  S
Al707       O712   1.798       .  S
O708        C715   1.259       .  A
O708       Al716   1.890       .  S
O709        C718   1.249       .  A
O709       Al716   1.881       .  S
O710       Al716   1.890       .  S
O711        C718   1.256       .  A
O712       Al716   1.813       .  S
O713        C714   1.278       .  A
C714        C977   1.490       .  S
C715       C1078   1.460       .  S
C718        C993   1.478       .  S
C719        O720   1.253       .  A
C719       C1062   1.470       .  S
O721        C736   1.264       .  A
O721       Al729   1.881       .  S
C722        O732   1.259       .  A
C722        O723   1.270       .  A
C722        C961   1.497   1_554  S
O723       Al725   1.951       .  S
O724        C726   1.245       .  A
O724       Al725   1.877       .  S
Al725       O733   1.868       .  S
Al725       O735   1.970       .  S
Al725       O734   1.786       .  S
C726        O739   1.249       .  A
O727        C737   1.268       .  A
O727       Al729   1.899       .  S
O728        C741   1.268       .  A
O728       Al738   1.947       .  S
Al729       O742   1.870       .  S
Al729       O739   1.906       .  S
Al729       O734   1.792       .  S
O730        C737   1.263       .  A
O730       Al738   1.895       .  S
O731        C740   1.261       .  A
O731       Al738   1.919       .  S
O732       Al738   1.895       .  S
O733        C740   1.250       .  A
O734       Al738   1.803       .  S
O735        C736   1.280       .  A
C736       C1065   1.486       .  S
C737        C965   1.458       .  S
C740        C957   1.476       .  S
C741        O742   1.254       .  A
C741        C974   1.495       .  S
O743        C758   1.274       .  A
O743       Al751   1.936       .  S
C744        O754   1.269       .  A
C744        O745   1.269       .  A
C744        C962   1.499       .  S
O745       Al747   1.924       .  S
O746        C748   1.251       .  A
O746       Al747   1.896       .  S
Al747       O755   1.903       .  S
Al747       O757   1.907       .  S
Al747       O756   1.792       .  S
C748        O761   1.254       .  A
O749        C759   1.266       .  A
O749       Al751   1.916       .  S
O750        C763   1.260       .  A
O750       Al760   1.922       .  S
Al751       O764   1.893       .  S
Al751       O761   1.910       .  S
Al751       O756   1.793       .  S
O752        C759   1.254       .  A
O752       Al760   1.852       .  S
O753        C762   1.257       .  A
O753       Al760   1.904       .  S
O754       Al760   1.944       .  S
O755        C762   1.260       .  A
O756       Al760   1.800       .  S
O757        C758   1.269       .  A
C758       C1046   1.487       .  S
C759        C946   1.459       .  S
C762        C941   1.478       .  S
C763        O764   1.257       .  A
C763        C950   1.491       .  S
O765        C780   1.260       .  A
O765       Al773   1.885       .  S
C766        O776   1.263       .  A
C766        O767   1.265       .  A
C766        C929   1.487       .  S
O767       Al769   1.924       .  S
O768        C770   1.253       .  A
O768       Al769   1.860       .  S
Al769       O777   1.884       .  S
Al769       O779   1.916       .  S
Al769       O778   1.797       .  S
C770        O783   1.261       .  A
C770        C925   1.461       .  S
O771        C781   1.263       .  A
O771       Al773   1.920       .  S
O772        C785   1.268       .  A
O772       Al782   1.914       .  S
Al773       O786   1.905       .  S
Al773       O783   1.914       .  S
Al773       O778   1.786       .  S
O774        C781   1.261       .  A
O774       Al782   1.915       .  S
O775        C784   1.266       .  A
O775       Al782   1.932       .  S
O776       Al782   1.910       .  S
O777        C784   1.253       .  A
O778       Al782   1.787       .  S
O779        C780   1.259       .  A
C780        C934   1.477       .  S
C784        C958   1.479       .  S
C785        O786   1.262       .  A
C785       C1026   1.473       .  S
O787        C802   1.261       .  A
O787       Al795   1.883       .  S
C788        O798   1.267       .  A
C788        O789   1.269       .  A
C788        C930   1.488       .  S
O789       Al791   1.938       .  S
O790        C792   1.258       .  A
O790       Al791   1.873       .  S
Al791       O799   1.905       .  S
Al791       O801   1.942       .  S
Al791       O800   1.791       .  S
C792        O805   1.254       .  A
C792        C921   1.442       .  S
O793        C803   1.257       .  A
O793       Al795   1.898       .  S
O794        C807   1.264       .  A
O794       Al804   1.904       .  S
Al795       O808   1.899       .  S
Al795       O805   1.877       .  S
Al795       O800   1.778       .  S
O796        C803   1.266       .  A
O796       Al804   1.942       .  S
O797        C806   1.261       .  A
O797       Al804   1.907       .  S
O798       Al804   1.910       .  S
O799        C806   1.261       .  A
O800       Al804   1.775       .  S
O801        C802   1.265       .  A
C802        C917   1.483       .  S
C806        C942   1.471       .  S
C807        O808   1.258       .  A
C807       C1010   1.464       .  S
O809        C824   1.275       .  A
O809       Al817   1.920       .  S
C810        O820   1.266       .  A
C810        O811   1.270       .  A
C810        C910   1.477       .  S
O811       Al813   1.919       .  S
O812        C814   1.244       .  A
O812       Al813   1.869       .  S
Al813       O821   1.868       .  S
Al813       O823   1.889       .  S
Al813       O822   1.789       .  S
C814        O827   1.252       .  A
C814        C933   1.466       .  S
O815        C825   1.260       .  A
O815       Al817   1.893       .  S
O816        C829   1.256       .  A
O816       Al826   1.903       .  S
Al817       O830   1.898       .  S
Al817       O827   1.916       .  S
Al817       O822   1.787       .  S
O818        C825   1.260       .  A
O818       Al826   1.853       .  S
O819        C828   1.262       .  A
O819       Al826   1.920       .  S
O820       Al826   1.922       .  S
O821        C828   1.250       .  A
O822       Al826   1.785       .  S
O823        C824   1.266       .  A
C824        C998   1.470       .  S
C825        C922   1.454       .  S
C828        C906   1.457       .  S
C829        O830   1.259       .  A
C829        C938   1.487       .  S
O831        C846   1.272       .  A
O831       Al839   1.921       .  S
C832        O842   1.270       .  A
C832        O833   1.270       .  A
C832        C909   1.480       .  S
O833       Al835   1.903       .  S
O834        C836   1.251       .  A
O834       Al835   1.882       .  S
Al835       O843   1.881       .  S
Al835       O845   1.887       .  S
Al835       O844   1.777       .  S
C836        O849   1.257       .  A
C836        C918   1.471       .  S
O837        C847   1.265       .  A
O837       Al839   1.919       .  S
O838        C851   1.262       .  A
O838       Al848   1.918       .  S
Al839       O852   1.872       .  S
Al839       O849   1.924       .  S
Al839       O844   1.783       .  S
O840        C847   1.257       .  A
O840       Al848   1.858       .  S
O841        C850   1.263       .  A
O841       Al848   1.929       .  S
O842       Al848   1.935       .  S
O843        C850   1.253       .  A
O844       Al848   1.788       .  S
O845        C846   1.265       .  A
C846        C990   1.466       .  S
C847        C926   1.464       .  S
C850        C901   1.467       .  S
C851        O852   1.251       .  A
C851        C914   1.469       .  S
O853        C868   1.257       .  A
O853       Al861   1.902       .  S
C854        O864   1.263       .  A
C854        O855   1.261       .  A
C854        C897   1.486   1_554  S
O855       Al857   1.926       .  S
O856        C858   1.255       .  A
O856       Al857   1.841       .  S
Al857       O865   1.879       .  S
Al857       O867   1.905       .  S
Al857       O866   1.790       .  S
C858        O871   1.272       .  A
C858        C945   1.462       .  S
O859        C869   1.258       .  A
O859       Al861   1.911       .  S
O860        C873   1.261       .  A
O860       Al870   1.897       .  S
Al861       O874   1.938       .  S
Al861       O871   1.950       .  S
Al861       O866   1.785       .  S
O862        C869   1.263       .  A
O862       Al870   1.915       .  S
O863        C872   1.272       .  A
O863       Al870   1.929       .  S
O864       Al870   1.916       .  S
O865        C872   1.256       .  A
O866       Al870   1.773       .  S
O867        C868   1.257       .  A
C868        C970   1.464       .  S
C869        C973   1.480       .  S
C872        C905   1.469       .  S
C873        O874   1.271       .  A
C873        C982   1.486       .  S
O875        C890   1.259       .  A
O875       Al883   1.900       .  S
C876        O886   1.266       .  A
C876        O877   1.263       .  A
C876        C898   1.485       .  S
O877       Al879   1.923       .  S
O878        C880   1.256       .  A
O878       Al879   1.844       .  S
Al879       O887   1.897       .  S
Al879       O889   1.900       .  S
Al879       O888   1.795       .  S
C880        O893   1.268       .  A
C880        C966   1.461       .  S
O881        C891   1.256       .  A
O881       Al883   1.917       .  S
O882        C895   1.265       .  A
O882       Al892   1.899       .  S
Al883       O896   1.951       .  S
Al883       O893   1.932       .  S
Al883       O888   1.792       .  S
O884        C891   1.256       .  A
O884       Al892   1.911       .  S
O885        C894   1.267       .  A
O885       Al892   1.918       .  S
O886       Al892   1.926       .  S
O887        C894   1.258       .  A
O888       Al892   1.788       .  S
O889        C890   1.254       .  A
C890        C954   1.480       .  S
C891        C949   1.489       .  S
C894        C902   1.480       .  S
C895        O896   1.276       .  A
C895        C978   1.491       .  S
C897        C898   1.343       .  D
C897        H899   1.087       .  S
C898        H900   1.087   1_556  S
C901        C902   1.338       .  D
C901        H903   1.088       .  S
C902        H904   1.086       .  S
C905        C906   1.331       .  D
C905        H907   1.087       .  S
C906        H908   1.088       .  S
C909        C910   1.339   1_556  D
C909        H911   1.087   1_556  S
C910        H912   1.087   1_554  S
C913        C914   1.340       .  D
C914        H916   1.088       .  S
C917        C918   1.345       .  D
C917        H919   1.086       .  S
C918        H920   1.088       .  S
C921        C922   1.335   1_556  D
C921        H923   1.087       .  S
C922        H924   1.087       .  S
C925        C926   1.347   1_554  D
C925        H927   1.087       .  S
C926        H928   1.087       .  S
C929        H931   1.086   1_565  S
C933        C934   1.340       .  D
C933        H935   1.088       .  S
C934        H936   1.086       .  S
C937        C938   1.349       .  D
C937        H939   1.087       .  S
C938        H940   1.086       .  S
C941        C942   1.344   1_655  D
C941        H943   1.086   1_655  S
C942        H944   1.087       .  S
C945        C946   1.351   1_554  D
C945        H947   1.086       .  S
C946        H948   1.087       .  S
C949        C950   1.352       .  D
C949        H951   1.087       .  S
C950        H952   1.086       .  S
C953        C954   1.346       .  D
C954        H956   1.086       .  S
C957        C958   1.339   1_655  D
C957        H959   1.087   1_655  S
C958        H960   1.087       .  S
C961        H963   1.087       .  S
C962        H964   1.086   1_556  S
C965        C966   1.349   1_554  D
C965        H967   1.087       .  S
C966        H968   1.086       .  S
C969        C970   1.342       .  D
C969        H971   1.089       .  S
C970        H972   1.086       .  S
C973        C974   1.360       .  D
C973        H975   1.087       .  S
C974        H976   1.085       .  S
C977        C978   1.344       .  D
C977        H979   1.087       .  S
C978        H980   1.086       .  S
C981        C982   1.342       .  D
C981        H983   1.087       .  S
C982        H984   1.086       .  S
C985        C986   1.345       .  D
C985        H987   1.087       .  S
C986        H988   1.087       .  S
C989        C990   1.342       .  D
C989        H991   1.087       .  S
C990        H992   1.087       .  S
C993        C994   1.339       .  D
C993        H995   1.087       .  S
C994        H996   1.087       .  S
C997        C998   1.338       .  D
C997        H999   1.087       .  S
C998       H1000   1.087       .  S
C1001      C1002   1.343       .  D
C1001      H1003   1.087       .  S
C1002      H1004   1.088       .  S
C1005      C1006   1.346       .  D
C1005      H1007   1.087       .  S
C1006      H1008   1.087       .  S
C1009      C1010   1.335       .  D
C1009      H1011   1.087       .  S
C1010      H1012   1.087       .  S
C1013      C1014   1.355       .  D
C1013      H1015   1.087       .  S
C1014      H1016   1.086       .  S
C1017      C1018   1.340       .  D
C1017      H1019   1.088       .  S
C1018      H1020   1.086       .  S
C1021      C1022   1.346       .  D
C1021      H1023   1.087       .  S
C1022      H1024   1.087       .  S
C1025      C1026   1.340       .  D
C1025      H1027   1.087       .  S
C1026      H1028   1.087       .  S
C1029      C1030   1.348       .  D
C1029      H1031   1.087       .  S
C1030      H1032   1.087       .  S
C1033      H1035   1.087       .  S
C1034      H1036   1.087       .  S
C1037      C1038   1.352       .  D
C1037      H1039   1.086       .  S
C1038      H1040   1.087       .  S
C1041      C1042   1.343       .  D
C1041      H1043   1.089       .  S
C1042      H1044   1.086       .  S
C1045      C1046   1.345       .  D
C1045      H1047   1.087       .  S
C1046      H1048   1.086       .  S
C1049      C1050   1.337   1_655  D
C1049      H1051   1.088       .  S
C1050      H1052   1.087   1_455  S
C1053      C1054   1.347       .  D
C1053      H1055   1.087       .  S
C1054      H1056   1.087       .  S
C1057      C1058   1.359       .  D
C1057      H1059   1.085       .  S
C1058      H1060   1.087       .  S
C1061      C1062   1.348       .  D
C1061      H1063   1.089       .  S
C1062      H1064   1.086       .  S
C1065      C1066   1.345       .  D
C1065      H1067   1.087       .  S
C1066      H1068   1.086       .  S
C1069      C1070   1.335   1_455  D
C1069      H1071   1.088   1_455  S
C1070      H1072   1.087       .  S
C1073      H1075   1.086       .  S
C1074      H1076   1.087       .  S
C1077      C1078   1.348       .  D
C1077      H1079   1.086       .  S
C1078      H1080   1.087       .  S
C1081      C1082   1.353       .  D
C1081      H1083   1.086       .  S
C1082      H1084   1.087       .  S
C1085      C1086   1.343       .  D
C1085      H1087   1.086       .  S
C1086      H1088   1.088       .  S
