geometry optimzed in LAMMPS
_audit_creation_date              2020-12-01 
_audit_creation_method            'lammps2cif' 
_symmetry_space_group_name_H-M    'P1' 
_symmetry_Int_Tables_number       1 
_symmetry_cell_setting            triclinic 
loop_ 
_symmetry_equiv_pos_as_xyz 
  x,y,z 
_cell_length_a                    38.73050352 
_cell_length_b                    29.73776846723463 
_cell_length_c                    48.21184125278105 
_cell_angle_alpha                 89.99169635911663 
_cell_angle_beta                  89.9904732795834 
_cell_angle_gamma                 90.00126383859549 
loop_ 
_atom_site_label 
_atom_site_type_symbol 
_atom_site_fract_x 
_atom_site_fract_y 
_atom_site_fract_z 
_atom_site_charge 
O1          O  0.91494229  0.28213318  0.99420527    -0.80700
C2          C  0.85826484  0.10630018  0.00418232     0.98600
O3          O  0.84582319  0.13928591  0.99118144    -0.69800
O4          O  0.83505601  0.21189428  0.01988341    -0.73400
Al5        Al  0.85920965  0.20090560  0.98669859     1.49000
C6          C  0.84049035  0.24521411  0.03519694     0.93900
O7          O  0.91495490  0.20769526  0.05709638    -0.79600
O8          O  0.96584950  0.18032257  0.98860364    -0.73200
Al9        Al  0.91428409  0.24272272  0.02481759     1.90100
O10         O  0.94039638  0.14767936  0.03958628    -0.72300
O11         O  0.91517819  0.13667401  0.96209115    -0.72100
O12         O  0.88914353  0.10714340  0.01264446    -0.77800
O13         O  0.87803903  0.18998443  0.95164635    -0.76000
O14         O  0.89972922  0.19657364  0.00404115    -1.12100
O15         O  0.86362067  0.26421553  0.97805535    -0.71300
C16         C  0.88897376  0.29097640  0.97949550     0.99400
C17         C  0.93070586  0.17105503  0.06022046     0.95800
Al18       Al  0.92560994  0.14712673  0.00097266     1.55600
O19         O  0.86968293  0.26362855  0.03611541    -0.75900
C20         C  0.89739763  0.15822237  0.94448631     1.00000
C21         C  0.97922959  0.21362960  0.00085444     0.94900
O22         O  0.96251546  0.23459353  0.01903878    -0.81300
O23         O  0.85807994  0.28281058  0.76017730    -0.80700
C24         C  0.91448529  0.10685962  0.75008710     0.98600
O25         O  0.92695091  0.13977770  0.76313241    -0.69800
O26         O  0.93783568  0.21239039  0.73443560    -0.73400
Al27       Al  0.91366864  0.20143224  0.76762110     1.49000
C28         C  0.93243500  0.24570388  0.71910102     0.93900
O29         O  0.85788398  0.20854469  0.69723066    -0.79600
O30         O  0.80701171  0.18104278  0.76569462    -0.73200
Al31       Al  0.85865707  0.24347629  0.72953844     1.90100
O32         O  0.83238634  0.14854716  0.71472452    -0.72300
O33         O  0.85766937  0.13721654  0.79215484    -0.72100
O34         O  0.88363321  0.10782050  0.74156759    -0.77800
O35         O  0.89479448  0.19051151  0.80266404    -0.76000
O36         O  0.87314809  0.19723722  0.75027169    -1.12100
O37         O  0.90938586  0.26474500  0.77628518    -0.71300
C38         C  0.88406987  0.29156536  0.77487711     0.99400
C39         C  0.84203392  0.17197841  0.69410514     0.95800
Al40       Al  0.84721524  0.14782789  0.75329772     1.55600
O41         O  0.90328904  0.26425032  0.71822582    -0.75900
C42         C  0.87545321  0.15869939  0.80978404     1.00000
C43         C  0.79366578  0.21439421  0.75345819     0.94900
O44         O  0.81043021  0.23545406  0.73534218    -0.81300
O45         O  0.69036614  0.34708013  0.00540341    -0.80700
C46         C  0.54542912  0.33267913  0.01658286     0.98600
O47         O  0.56786219  0.31350724  0.03126944    -0.69800
O48         O  0.61044851  0.26591294  0.00155910    -0.73400
Al49       Al  0.61702220  0.31080121  0.02882264     1.49000
C50         C  0.63183992  0.25656981  0.98281939     0.93900
O51         O  0.62383147  0.35338016  0.94837783    -0.79600
O52         O  0.63232717  0.44494616  0.00613773    -0.73200
Al53       Al  0.65537348  0.35014630  0.97816457     1.90100
O54         O  0.59077519  0.40786474  0.96430855    -0.72300
O55         O  0.59388880  0.40845168  0.04495505    -0.72100
O56         O  0.55302838  0.36738798  0.00278085    -0.77800
O57         O  0.62367100  0.34982597  0.05878923    -0.76000
O58         O  0.62213515  0.35477978  0.00376216    -1.12100
O59         O  0.66501174  0.29770146  0.03245738    -0.71300
C60         C  0.69135099  0.31952740  0.02517792     0.99400
C61         C  0.60133119  0.38330915  0.94450093     0.95800
Al62       Al  0.59460434  0.40303837  0.00451061     1.55600
O63         O  0.65333397  0.28549371  0.97447832    -0.75900
C64         C  0.61105340  0.38787982  0.06344947     1.00000
C65         C  0.65861260  0.44617593  0.99072994     0.94900
O66         O  0.66610328  0.41307891  0.97559165    -0.81300
O67         O  0.58204620  0.34721867  0.24862911    -0.80700
C68         C  0.72697877  0.33274194  0.23769628     0.98600
O69         O  0.70457792  0.31365414  0.22294230    -0.69800
O70         O  0.66198473  0.26605899  0.25267123    -0.73400
Al71       Al  0.65542302  0.31090438  0.22537263     1.49000
C72         C  0.64053155  0.25668890  0.27136368     0.93900
O73         O  0.64838519  0.35350862  0.30579628    -0.79600
O74         O  0.64010349  0.44505257  0.24799035    -0.73200
Al75       Al  0.61694270  0.35026436  0.27594450     1.90100
O76         O  0.68151619  0.40795788  0.28990327    -0.72300
O77         O  0.67864617  0.40848248  0.20924724    -0.72100
O78         O  0.71935880  0.36740911  0.25152561    -0.77800
O79         O  0.64879494  0.34992447  0.19539542    -0.76000
O80         O  0.65025550  0.35488326  0.25041311    -1.12100
O81         O  0.60745565  0.29773531  0.22169726    -0.71300
C82         C  0.58111494  0.31963355  0.22887682     0.99400
C83         C  0.67088843  0.38342483  0.30970091     0.95800
Al84       Al  0.67780718  0.40311134  0.24969917     1.55600
O85         O  0.61898091  0.28559029  0.27964667    -0.75900
C86         C  0.66149319  0.38793765  0.19073452     1.00000
C87         C  0.61377224  0.44629741  0.26335032     0.94900
O88         O  0.60621923  0.41320002  0.27847528    -0.81300
O89         O  0.35762127  0.28273122  0.26014960    -0.80700
C90         C  0.41423175  0.10685519  0.25015139     0.98600
O91         O  0.42663945  0.13978628  0.26322622    -0.69800
O92         O  0.43748023  0.21244021  0.23454821    -0.73400
Al93       Al  0.41327082  0.20143166  0.26770533     1.49000
C94         C  0.43203349  0.24568016  0.21916229     0.93900
O95         O  0.35752433  0.20833041  0.19726214    -0.79600
O96         O  0.30667280  0.18082844  0.26574370    -0.73200
Al97       Al  0.35824736  0.24331439  0.22955021     1.90100
O98         O  0.33207100  0.14832072  0.21476707    -0.72300
O99         O  0.35734960  0.13707983  0.29221383    -0.72100
O100        O  0.38338165  0.10775256  0.24162217    -0.77800
O101        O  0.39435768  0.19049601  0.30273760    -0.76000
O102        O  0.37277878  0.19713605  0.25031928    -1.12100
O103        O  0.40889756  0.26474178  0.27634759    -0.71300
C104        C  0.38357887  0.29154760  0.27487188     0.99400
C105        C  0.34172490  0.17172962  0.19413980     0.95800
Al106      Al  0.34690370  0.14767084  0.25334829     1.55600
O107        O  0.40285547  0.26412963  0.21823314    -0.75900
C108        C  0.37505918  0.15863979  0.30985505     1.00000
C109        C  0.29330554  0.21417399  0.25351557     0.94900
O110        O  0.31003059  0.23521365  0.23536603    -0.81300
O111        O  0.41435335  0.28269196  0.49417000    -0.80700
C112        C  0.35782758  0.10679522  0.50426560     0.98600
O113        O  0.34543499  0.13968392  0.49113947    -0.69800
O114        O  0.33454689  0.21228565  0.51983989    -0.73400
Al115      Al  0.35875741  0.20134722  0.48667980     1.49000
C116        C  0.33994442  0.24558953  0.53517898     0.93900
O117        O  0.41447117  0.20840444  0.55713543    -0.79600
O118        O  0.46537621  0.18081077  0.48870110    -0.73200
Al119      Al  0.41374056  0.24333312  0.52481062     1.90100
O120        O  0.43993718  0.14836842  0.53968852    -0.72300
O121        O  0.41470410  0.13705157  0.46221190    -0.72100
O122        O  0.38866110  0.10773808  0.51282941    -0.77800
O123        O  0.37770264  0.19047286  0.45166018    -0.76000
O124        O  0.39924633  0.19711186  0.50407541    -1.12100
O125        O  0.36305542  0.26466689  0.47803768    -0.71300
C126        C  0.38837008  0.29148301  0.47946890     0.99400
C127        C  0.43027212  0.17181076  0.56029707     0.95800
Al128      Al  0.42513517  0.14766337  0.50109001     1.55600
O129        O  0.36910165  0.26410611  0.53609228    -0.75900
C130        C  0.39700020  0.15861162  0.44455777     1.00000
C131        C  0.47873210  0.21416707  0.50092010     0.94900
O132        O  0.46196899  0.23526997  0.51901601    -0.81300
O133        O  0.08247966  0.34730662  0.74862574    -0.80700
C134        C  0.22739941  0.33323401  0.73752956     0.98600
O135        O  0.20500833  0.31409431  0.72279529    -0.69800
O136        O  0.16260589  0.26640507  0.75263418    -0.73400
Al137      Al  0.15587428  0.31117332  0.72531221     1.49000
C138        C  0.14119693  0.25697534  0.77134796     0.93900
O139        O  0.14889580  0.35380904  0.80571785    -0.79600
O140        O  0.14036441  0.44529636  0.74790709    -0.73200
Al141      Al  0.11741161  0.35046660  0.77590625     1.90100
O142        O  0.18192120  0.40834048  0.78978742    -0.72300
O143        O  0.17885182  0.40881141  0.70910190    -0.72100
O144        O  0.21975196  0.36789261  0.75135618    -0.77800
O145        O  0.14909123  0.35012562  0.69532320    -0.76000
O146        O  0.15067104  0.35516636  0.75033747    -1.12100
O147        O  0.10792501  0.29782075  0.72171773    -0.71300
C148        C  0.08156226  0.31967568  0.72889714     0.99400
C149        C  0.17136247  0.38377698  0.80959921     0.95800
Al150      Al  0.17813443  0.40347058  0.74957371     1.55600
O151        O  0.11957619  0.28579693  0.77962182    -0.75900
C152        C  0.16169043  0.38818292  0.69062298     1.00000
C153        C  0.11406080  0.44648601  0.76329606     0.94900
O154        O  0.10658299  0.41338000  0.77843932    -0.81300
O155        O  0.18990676  0.34724189  0.50539784    -0.80700
C156        C  0.04500253  0.33306168  0.51654536     0.98600
O157        O  0.06739898  0.31394366  0.53129009    -0.69800
O158        O  0.10986151  0.26624218  0.50153435    -0.73400
Al159      Al  0.11654012  0.31109711  0.52879691     1.49000
C160        C  0.13125727  0.25682574  0.48281137     0.93900
O161        O  0.12341581  0.35359600  0.44834252    -0.79600
O162        O  0.13198622  0.44519217  0.50608098    -0.73200
Al163      Al  0.15494175  0.35033503  0.47813986     1.90100
O164        O  0.09040222  0.40814155  0.46425390    -0.72300
O165        O  0.09352738  0.40877031  0.54492579    -0.72100
O166        O  0.05262975  0.36773317  0.50271959    -0.77800
O167        O  0.12328971  0.35011460  0.55874539    -0.76000
O168        O  0.12170551  0.35504881  0.50372727    -1.12100
O169        O  0.16449799  0.29784673  0.53240576    -0.71300
C170        C  0.19084926  0.31967772  0.52516721     0.99400
C171        C  0.10093306  0.38354464  0.44445553     0.95800
Al172      Al  0.09422565  0.40334212  0.50446247     1.55600
O173        O  0.15281970  0.28567666  0.47448239    -0.75900
C174        C  0.11070639  0.38818416  0.56341309     1.00000
C175        C  0.15828172  0.44636607  0.49068149     0.94900
O176        O  0.16574091  0.41324966  0.47554781    -0.81300
O177        O  0.58231583  0.84725194  0.74892665    -0.80700
C178        C  0.72722947  0.83294895  0.73773648     0.98600
O179        O  0.70479784  0.81373869  0.72307909    -0.69800
O180        O  0.66233045  0.76617691  0.75292653    -0.73400
Al181      Al  0.65566198  0.81094510  0.72559296     1.49000
C182        C  0.64088593  0.75680833  0.77162470     0.93900
O183        O  0.64879106  0.85362359  0.80597914    -0.79600
O184        O  0.64026612  0.94517278  0.74822488    -0.73200
Al185      Al  0.61726752  0.85034762  0.77619230     1.90100
O186        O  0.68189557  0.90805826  0.79001687    -0.72300
O187        O  0.67861820  0.90863508  0.70935712    -0.72100
O188        O  0.71962016  0.86766715  0.75151718    -0.77800
O189        O  0.64893524  0.84987575  0.69558500    -0.76000
O190        O  0.65051371  0.85498208  0.75060397    -1.12100
O191        O  0.60768818  0.79771020  0.72200683    -0.71300
C192        C  0.58135248  0.81961129  0.72920301     0.99400
C193        C  0.67132858  0.88351323  0.80983365     0.95800
Al194      Al  0.67800717  0.90326370  0.74981513     1.55600
O195        O  0.61932920  0.78569699  0.77990227    -0.75900
C196        C  0.66147951  0.88796487  0.69088591     1.00000
C197        C  0.61398524  0.94638715  0.76363952     0.94900
O198        O  0.60649951  0.91326357  0.77875983    -0.81300
O199        O  0.68998974  0.84715564  0.50546089    -0.80700
C200        C  0.54509727  0.83293620  0.51675908     0.98600
O201        O  0.56752374  0.81384644  0.53149107    -0.69800
O202        O  0.60991163  0.76618121  0.50161771    -0.73400
Al203      Al  0.61666689  0.81097448  0.52891036     1.49000
C204        C  0.63128214  0.75678942  0.48286930     0.93900
O205        O  0.62343118  0.85359349  0.44847968    -0.79600
O206        O  0.63205877  0.94507361  0.50628419    -0.73200
Al207      Al  0.65498840  0.85028948  0.47824176     1.90100
O208        O  0.59045206  0.90813110  0.46444276    -0.72300
O209        O  0.59360663  0.90854810  0.54511305    -0.72100
O210        O  0.55270532  0.86758461  0.50289980    -0.77800
O211        O  0.62349406  0.84995983  0.55887479    -0.76000
O212        O  0.62178824  0.85495505  0.50386058    -1.12100
O213        O  0.66462910  0.79767645  0.53243706    -0.71300
C214        C  0.69096664  0.81953295  0.52519628     0.99400
C215        C  0.60096543  0.88356857  0.44462210     0.95800
Al216      Al  0.59429665  0.90322435  0.50464733     1.55600
O217        O  0.65284979  0.78564026  0.47454663    -0.75900
C218        C  0.61082734  0.88797490  0.56358015     1.00000
C219        C  0.65833018  0.94629002  0.49085747     0.94900
O220        O  0.66577462  0.91321109  0.47568686    -0.81300
O221        O  0.41465625  0.78263600  0.99420627    -0.80700
C222        C  0.35803158  0.60677065  0.00423060     0.98600
O223        O  0.34559266  0.63973432  0.99120665    -0.69800
O224        O  0.33482074  0.71232261  0.01994785    -0.73400
Al225      Al  0.35895420  0.70137503  0.98674881     1.49000
C226        C  0.34025504  0.74564037  0.03526601     0.93900
O227        O  0.41473061  0.70826256  0.05712379    -0.79600
O228        O  0.46558561  0.68074310  0.98866092    -0.73200
Al229      Al  0.41402930  0.74324558  0.02483330     1.90100
O230        O  0.44013534  0.64820120  0.03963862    -0.72300
O231        O  0.41489295  0.63712620  0.96215317    -0.72100
O232        O  0.38888855  0.60765637  0.01273081    -0.77800
O233        O  0.37780006  0.69049236  0.95169651    -0.76000
O234        O  0.39947583  0.69706771  0.00408353    -1.12100
O235        O  0.36331169  0.76469570  0.97812102    -0.71300
C236        C  0.38865404  0.79147477  0.97953402     0.99400
C237        C  0.43046972  0.67161883  0.06026004     0.95800
Al238      Al  0.42534383  0.64760641  0.00103468     1.55600
O239        O  0.36942695  0.76411793  0.03614691    -0.75900
C240        C  0.39712939  0.65869380  0.94454245     1.00000
C241        C  0.47897304  0.71405190  0.00089964     0.94900
O242        O  0.46224755  0.73511272  0.01903398    -0.81300
O243        O  0.35777922  0.78265052  0.76009730    -0.80700
C244        C  0.41435728  0.60677412  0.75003953     0.98600
O245        O  0.42681339  0.63971858  0.76307006    -0.69800
O246        O  0.43758959  0.71234570  0.73435992    -0.73400
Al247      Al  0.41346574  0.70136663  0.76755807     1.49000
C248        C  0.43216194  0.74568213  0.71905221     0.93900
O249        O  0.35761497  0.70826523  0.69719501    -0.79600
O250        O  0.30684044  0.68079520  0.76572196    -0.73200
Al251      Al  0.35837319  0.74325991  0.72948222     1.90100
O252        O  0.33216909  0.64826922  0.71474014    -0.72300
O253        O  0.35754122  0.63711168  0.79217560    -0.72100
O254        O  0.38348541  0.60767620  0.74156695    -0.77800
O255        O  0.39464508  0.69045903  0.80262013    -0.76000
O256        O  0.37293195  0.69708127  0.75023677    -1.12100
O257        O  0.40911030  0.76468389  0.77620261    -0.71300
C258        C  0.38377024  0.79146768  0.77478431     0.99400
C259        C  0.34178721  0.67167400  0.69409826     0.95800
Al260      Al  0.34704851  0.64763448  0.75331016     1.55600
O261        O  0.40297818  0.76412583  0.71814647    -0.75900
C262        C  0.37530158  0.65867730  0.80978245     1.00000
C263        C  0.29344150  0.71408848  0.75346777     0.94900
O264        O  0.31015629  0.73514142  0.73531770    -0.81300
O265        O  0.19012625  0.84706043  0.00558538    -0.80700
C266        C  0.04520792  0.83288711  0.01672078     0.98600
O267        O  0.06760979  0.81377669  0.03146709    -0.69800
O268        O  0.11008965  0.76608450  0.00170050    -0.73400
Al269      Al  0.11675758  0.81092634  0.02898077     1.49000
C270        C  0.13146494  0.75670876  0.98295303     0.93900
O271        O  0.12365196  0.85358065  0.94854166    -0.79600
O272        O  0.13219647  0.94501918  0.00637516    -0.73200
Al273      Al  0.15515947  0.85022987  0.97834038     1.90100
O274        O  0.09066627  0.90812254  0.96448514    -0.72300
O275        O  0.09363808  0.90851300  0.04513614    -0.72100
O276        O  0.05283480  0.86755157  0.00288172    -0.77800
O277        O  0.12349178  0.84993216  0.05894685    -0.76000
O278        O  0.12191881  0.85489976  0.00392761    -1.12100
O279        O  0.16472116  0.79767101  0.03259439    -0.71300
C280        C  0.19107427  0.81949455  0.02535071     0.99400
C281        C  0.10121270  0.88358460  0.94466808     0.95800
Al282      Al  0.09442682  0.90318385  0.00468323     1.55600
O283        O  0.15300907  0.78558423  0.97462471    -0.75900
C284        C  0.11082045  0.88795133  0.06362620     1.00000
C285        C  0.15850609  0.94622105  0.99098892     0.94900
O286        O  0.16597096  0.91314478  0.97582237    -0.81300
O287        O  0.08208377  0.84718386  0.24882281    -0.80700
C288        C  0.22702796  0.83295155  0.23774967     0.98600
O289        O  0.20462050  0.81380873  0.22302902    -0.69800
O290        O  0.16210379  0.76613623  0.25278222    -0.73400
Al291      Al  0.15546734  0.81098318  0.22549992     1.49000
C292        C  0.14065953  0.75673699  0.27147528     0.93900
O293        O  0.14849273  0.85347307  0.30594258    -0.79600
O294        O  0.14005964  0.94508745  0.24820640    -0.73200
Al295      Al  0.11701340  0.85024159  0.27611368     1.90100
O296        O  0.18157784  0.90797162  0.29004882    -0.72300
O297        O  0.17853735  0.90864569  0.20939132    -0.72100
O298        O  0.21938965  0.86759277  0.25159372    -0.77800
O299        O  0.14876675  0.85001102  0.19554527    -0.76000
O300        O  0.15029235  0.85493492  0.25055860    -1.12100
O301        O  0.10749157  0.79774236  0.22185892    -0.71300
C302        C  0.08113518  0.81958400  0.22907763     0.99400
C303        C  0.17099156  0.88339747  0.30984241     0.95800
Al304      Al  0.17779698  0.90320715  0.24984304     1.55600
O305        O  0.11909447  0.78559893  0.27977197    -0.75900
C306        C  0.16138354  0.88807066  0.19089011     1.00000
C307        C  0.11374747  0.94626669  0.26358591     0.94900
O308        O  0.10624502  0.91314262  0.27870043    -0.81300
O309        O  0.85732464  0.78221745  0.26002144    -0.80700
C310        C  0.91397673  0.60638959  0.24998306     0.98600
O311        O  0.92638340  0.63931572  0.26306376    -0.69800
O312        O  0.93726810  0.71201618  0.23443664    -0.73400
Al313      Al  0.91301099  0.70095502  0.26756476     1.49000
C314        C  0.93188115  0.74537285  0.21913519     0.93900
O315        O  0.85742437  0.70791094  0.19708082    -0.79600
O316        O  0.80641527  0.68038170  0.26551285    -0.73200
Al317      Al  0.85804284  0.74287110  0.22938618     1.90100
O318        O  0.83189008  0.64791437  0.21454082    -0.72300
O319        O  0.85703944  0.63660782  0.29202192    -0.72100
O320        O  0.88313116  0.60729199  0.24144544    -0.77800
O321        O  0.89406499  0.68999006  0.30256737    -0.76000
O322        O  0.87254244  0.69667491  0.25014916    -1.12100
O323        O  0.90860094  0.76424608  0.27623990    -0.71300
C324        C  0.88325871  0.79101843  0.27477771     0.99400
C325        C  0.84161716  0.67131675  0.19392949     0.95800
Al326      Al  0.84665286  0.64722067  0.25314453     1.55600
O327        O  0.90268669  0.76378305  0.21816636    -0.75900
C328        C  0.87474309  0.65815760  0.30967239     1.00000
C329        C  0.79304916  0.71369848  0.25325714     0.94900
O330        O  0.80979476  0.73472049  0.23510887    -0.81300
O331        O  0.91437843  0.78261477  0.49386652    -0.80700
C332        C  0.85790066  0.60667850  0.50404884     0.98600
O333        O  0.84546786  0.63957574  0.49095700    -0.69800
O334        O  0.83464076  0.71218915  0.51966763    -0.73400
Al335      Al  0.85877886  0.70123851  0.48647394     1.49000
C336        C  0.84007124  0.74550029  0.53499413     0.93900
O337        O  0.91461830  0.70837174  0.55684061    -0.79600
O338        O  0.96543052  0.68068255  0.48840387    -0.73200
Al339      Al  0.91383352  0.74326742  0.52451539     1.90100
O340        O  0.94000647  0.64826950  0.53940491    -0.72300
O341        O  0.91472017  0.63696305  0.46195092    -0.72100
O342        O  0.88874624  0.60763167  0.51257463    -0.77800
O343        O  0.87765656  0.69033799  0.45143347    -0.76000
O344        O  0.89930555  0.69702088  0.50381414    -1.12100
O345        O  0.86304280  0.76456579  0.47782322    -0.71300
C346        C  0.88833559  0.79142129  0.47923649     0.99400
C347        C  0.93035834  0.67173818  0.56000594     0.95800
Al348      Al  0.92519152  0.64756450  0.50081628     1.55600
O349        O  0.86922202  0.76403735  0.53585141    -0.75900
C350        C  0.89696393  0.65849200  0.44431674     1.00000
C351        C  0.97879682  0.71405703  0.50059334     0.94900
O352        O  0.96204403  0.73521001  0.51867056    -0.81300
O353        O  0.85736102  0.01304295  0.49433780    -0.80700
C354        C  0.91411945  0.18885229  0.50419612     0.98600
O355        O  0.92652015  0.15586060  0.49117638    -0.69800
O356        O  0.93730051  0.08324053  0.51988900    -0.73400
Al357      Al  0.91310167  0.09424248  0.48673237     1.49000
C358        C  0.93184921  0.04997261  0.53525096     0.93900
O359        O  0.85741452  0.08751131  0.55719304    -0.79600
O360        O  0.80651368  0.11493875  0.48873810    -0.73200
Al361      Al  0.85806039  0.05247955  0.52492870     1.90100
O362        O  0.83198270  0.14752636  0.53967031    -0.72300
O363        O  0.85716914  0.15856722  0.46219327    -0.72100
O364        O  0.88326450  0.18802016  0.51272241    -0.77800
O365        O  0.89420727  0.10516368  0.45170403    -0.76000
O366        O  0.87261568  0.09861286  0.50412592    -1.12100
O367        O  0.90865696  0.03093674  0.47811554    -0.71300
C368        C  0.88330393  0.00418324  0.47959929     0.99400
C369        C  0.84163760  0.12413312  0.56030236     0.95800
Al370      Al  0.84676462  0.14809052  0.50107360     1.55600
O371        O  0.90265396  0.03157328  0.53620344    -0.75900
C372        C  0.87487832  0.13697052  0.44456644     1.00000
C373        C  0.79313331  0.08163660  0.50100188     0.94900
O374        O  0.80984355  0.06064863  0.51917592    -0.81300
O375        O  0.91421213  0.01244822  0.26027392    -0.80700
C376        C  0.85774793  0.18838742  0.25014077     0.98600
O377        O  0.84530342  0.15547224  0.26321266    -0.69800
O378        O  0.83447940  0.08287520  0.23447386    -0.73400
Al379      Al  0.85860340  0.09380333  0.26767411     1.49000
C380        C  0.83990983  0.04955657  0.21915149     0.93900
O381        O  0.91448746  0.08671324  0.19730044    -0.79600
O382        O  0.96524348  0.11434662  0.26576921    -0.73200
Al383      Al  0.91367893  0.05179873  0.22962618     1.90100
O384        O  0.93988038  0.14679120  0.21475965    -0.72300
O385        O  0.91453088  0.15805315  0.29221713    -0.72100
O386        O  0.88859313  0.18743147  0.24160285    -0.77800
O387        O  0.87746283  0.10467137  0.30272110    -0.76000
O388        O  0.89913867  0.09803238  0.25033558    -1.12100
O389        O  0.86286505  0.03047792  0.27631498    -0.71300
C390        C  0.88817871  0.00365462  0.27492510     0.99400
C391        C  0.93026217  0.12332893  0.19414673     0.95800
Al392      Al  0.92502698  0.14747985  0.25335143     1.55600
O393        O  0.86906466  0.03102708  0.21828848    -0.75900
C394        C  0.89677082  0.13650917  0.30984642     1.00000
C395        C  0.97862486  0.08098718  0.25357482     0.94900
O396        O  0.96189468  0.05985438  0.23547748    -0.81300
O397        O  0.19029989  0.94815996  0.74878792    -0.80700
C398        C  0.04536084  0.96268864  0.73783440     0.98600
O399        O  0.06778033  0.98181197  0.72310524    -0.69800
O400        O  0.11041942  0.02941326  0.75277001    -0.73400
Al401      Al  0.11693913  0.98451276  0.72550092     1.49000
C402        C  0.13188157  0.03877878  0.77144924     0.93900
O403        O  0.12390553  0.94200611  0.80593844    -0.79600
O404        O  0.13220953  0.85038976  0.74818358    -0.73200
Al405      Al  0.15537896  0.94517475  0.77609602     1.90100
O406        O  0.09078472  0.88753382  0.79007826    -0.72300
O407        O  0.09369136  0.88690448  0.70942971    -0.72100
O408        O  0.05296735  0.92801874  0.75166814    -0.77800
O409        O  0.12352826  0.94546016  0.69554109    -0.76000
O410        O  0.12207815  0.94055315  0.75056238    -1.12100
O411        O  0.16492419  0.99760397  0.72180178    -0.71300
C412        C  0.19126052  0.97572853  0.72902157     0.99400
C413        C  0.10139201  0.91210394  0.80985809     0.95800
Al414      Al  0.09451592  0.89232769  0.74987255     1.55600
O415        O  0.15339322  0.00985003  0.77975496    -0.75900
C416        C  0.11083639  0.90744070  0.69090264     1.00000
C417        C  0.15852641  0.84914041  0.76354836     0.94900
O418        O  0.16606686  0.88223074  0.77867511    -0.81300
O419        O  0.08193632  0.94818764  0.50550173    -0.80700
C420        C  0.22684644  0.96269184  0.51672144     0.98600
O421        O  0.20439601  0.98181349  0.53141658    -0.69800
O422        O  0.16187132  0.02935829  0.50162954    -0.73400
Al423      Al  0.15524290  0.98452042  0.52891871     1.49000
C424        C  0.14049400  0.03870094  0.48288415     0.93900
O425        O  0.14850401  0.94192002  0.44849051    -0.79600
O426        O  0.13998894  0.85036472  0.50627318    -0.73200
Al427      Al  0.11694186  0.94514408  0.47826711     1.90100
O428        O  0.18155934  0.88745339  0.46445012    -0.72300
O429        O  0.17838874  0.88692072  0.54509840    -0.72100
O430        O  0.21927065  0.92799073  0.50290969    -0.77800
O431        O  0.14854521  0.94551730  0.55889919    -0.76000
O432        O  0.15015950  0.94053120  0.50387431    -1.12100
O433        O  0.10725551  0.99763942  0.53251030    -0.71300
C434        C  0.08093564  0.97576164  0.52525912     0.99400
C435        C  0.17100767  0.91198967  0.44463064     0.95800
Al436      Al  0.17770348  0.89229942  0.50464729     1.55600
O437        O  0.11897452  0.00979760  0.47456693    -0.75900
C438        C  0.16119863  0.90748818  0.56358225     1.00000
C439        C  0.11372973  0.84911302  0.49084164     0.94900
O440        O  0.10623822  0.88221085  0.47570136    -0.81300
O441        O  0.58242332  0.94812124  0.00549788    -0.80700
C442        C  0.72731822  0.96220982  0.01670617     0.98600
O443        O  0.70491447  0.98134901  0.03143662    -0.69800
O444        O  0.66253679  0.02903313  0.00158533    -0.73400
Al445      Al  0.65577639  0.98425272  0.02889637     1.49000
C446        C  0.64116478  0.03844376  0.98284669     0.93900
O447        O  0.64896308  0.94162166  0.94848872    -0.79600
O448        O  0.64029357  0.85013751  0.00629972    -0.73200
Al449      Al  0.61741327  0.94495746  0.97826113     1.90100
O450        O  0.68192607  0.88706203  0.96445136    -0.72300
O451        O  0.67873683  0.88661760  0.04512493    -0.72100
O452        O  0.71968792  0.92753484  0.00289175    -0.77800
O453        O  0.64895119  0.94529495  0.05888070    -0.76000
O454        O  0.65061757  0.94026060  0.00386610    -1.12100
O455        O  0.60781941  0.99757941  0.03245293    -0.71300
C456        C  0.58146594  0.97575020  0.02522628     0.99400
C457        C  0.67142058  0.91163487  0.94463088     0.95800
Al458      Al  0.67807486  0.89195335  0.00465570     1.55600
O459        O  0.61957572  0.00961046  0.97454720    -0.75900
C460        C  0.66154047  0.90723727  0.06358908     1.00000
C461        C  0.61402446  0.84895403  0.99087841     0.94900
O462        O  0.60659417  0.88205118  0.97571657    -0.81300
O463        O  0.68986618  0.94792160  0.24883544    -0.80700
C464        C  0.54497525  0.96238954  0.23772717     0.98600
O465        O  0.56739875  0.98146261  0.22297920    -0.69800
O466        O  0.60989119  0.02907204  0.25275401    -0.73400
Al467      Al  0.61654368  0.98423747  0.22547414     1.49000
C468        C  0.63130799  0.03847128  0.27145862     0.93900
O469        O  0.62337284  0.94168943  0.30590146    -0.79600
O470        O  0.63185566  0.85011697  0.24812078    -0.73200
Al471      Al  0.65490175  0.94489989  0.27610384     1.90100
O472        O  0.59033209  0.88716903  0.28999593    -0.72300
O473        O  0.59340469  0.88664884  0.20931593    -0.72100
O474        O  0.55256506  0.92770857  0.25155960    -0.77800
O475        O  0.62326760  0.94523575  0.19551322    -0.76000
O476        O  0.62166029  0.94026168  0.25052658    -1.12100
O477        O  0.66451888  0.99741694  0.22186847    -0.71300
C478        C  0.69084098  0.97550726  0.22907890     0.99400
C479        C  0.60088995  0.91174163  0.30979562     0.95800
Al480      Al  0.59413109  0.89202044  0.24978266     1.55600
O481        O  0.65285632  0.00958785  0.27977186    -0.75900
C482        C  0.61061521  0.90720968  0.19083135     1.00000
C483        C  0.65814139  0.84887010  0.26352255     0.94900
O484        O  0.66562220  0.88194768  0.27868317    -0.81300
O485        O  0.35776762  0.01293830  0.99418758    -0.80700
C486        C  0.41430877  0.18882622  0.00416545     0.98600
O487        O  0.42665889  0.15595752  0.99099518    -0.69800
O488        O  0.43766029  0.08331732  0.01964101    -0.73400
Al489      Al  0.41332741  0.09429911  0.98654825     1.49000
C490        C  0.43229805  0.05003040  0.03500979     0.93900
O491        O  0.35781638  0.08724240  0.05713236    -0.79600
O492        O  0.30675064  0.11480077  0.98876760    -0.73200
Al493      Al  0.35846648  0.05230734  0.02481427     1.90100
O494        O  0.33225203  0.14722446  0.03970637    -0.72300
O495        O  0.35734075  0.15866484  0.96222879    -0.72100
O496        O  0.38349947  0.18788052  0.01279898    -0.77800
O497        O  0.39426191  0.10520773  0.95157889    -0.76000
O498        O  0.37289908  0.09852834  0.00404091    -1.12100
O499        O  0.40899502  0.03099284  0.97790887    -0.71300
C500        C  0.38369823  0.00415953  0.97941931     0.99400
C501        C  0.34196413  0.12379608  0.06030323     0.95800
Al502      Al  0.34699592  0.14797433  0.00110552     1.55600
O503        O  0.40313526  0.03154046  0.03600642    -0.75900
C504        C  0.37497449  0.13711027  0.94453151     1.00000
C505        C  0.29343573  0.08142619  0.00100934     0.94900
O506        O  0.31022527  0.06036963  0.01910985    -0.81300
O507        O  0.41468752  0.01299549  0.76027243    -0.80700
C508        C  0.35811986  0.18886507  0.75011629     0.98600
O509        O  0.34566155  0.15594245  0.76317606    -0.69800
O510        O  0.33489700  0.08329441  0.73449110    -0.73400
Al511      Al  0.35900490  0.09429551  0.76768887     1.49000
C512        C  0.34035409  0.04997416  0.71917931     0.93900
O513        O  0.41489656  0.08734635  0.69734101    -0.79600
O514        O  0.46563999  0.11486367  0.76586923    -0.73200
Al515      Al  0.41412818  0.05237828  0.72964358     1.90100
O516        O  0.44032541  0.14737244  0.71483385    -0.72300
O517        O  0.41488698  0.15860534  0.79227092    -0.72100
O518        O  0.38899469  0.18795415  0.74164293    -0.77800
O519        O  0.37780838  0.10523081  0.80274744    -0.76000
O520        O  0.39955155  0.09857013  0.75037162    -1.12100
O521        O  0.36334247  0.03098094  0.77635037    -0.71300
C522        C  0.38866578  0.00417151  0.77493222     0.99400
C523        C  0.43066487  0.12397119  0.69420703     0.95800
Al524      Al  0.42542974  0.14802354  0.75341747     1.55600
O525        O  0.36953690  0.03152581  0.71829882    -0.75900
C526        C  0.39709832  0.13707689  0.80988576     1.00000
C527        C  0.47904147  0.08152998  0.75365520     0.94900
O528        O  0.46234629  0.06048966  0.73549504    -0.81300
O529        O  0.08243523  0.44806262  0.00545915    -0.80700
C530        C  0.22732002  0.46234428  0.01657234     0.98600
O531        O  0.20490483  0.48144463  0.03130588    -0.69800
O532        O  0.16249765  0.52912042  0.00145910    -0.73400
Al533      Al  0.15577605  0.48431659  0.02876719     1.49000
C534        C  0.14104293  0.53855055  0.98278359     0.93900
O535        O  0.14887554  0.44178856  0.94835041    -0.79600
O536        O  0.14037064  0.35017043  0.00609460    -0.73200
Al537      Al  0.11736948  0.44502014  0.97816373     1.90100
O538        O  0.18193907  0.38727844  0.96425447    -0.72300
O539        O  0.17878765  0.38667493  0.04493820    -0.72100
O540        O  0.21970612  0.42769886  0.00272422    -0.77800
O541        O  0.14898919  0.44532574  0.05873349    -0.76000
O542        O  0.15062058  0.44033751  0.00372596    -1.12100
O543        O  0.10781750  0.49761858  0.03235279    -0.71300
C544        C  0.08148489  0.47569311  0.02518870     0.99400
C545        C  0.17136839  0.41185436  0.94445487     0.95800
Al546      Al  0.17811321  0.39206684  0.00446962     1.55600
O547        O  0.11945625  0.50969645  0.97450248    -0.75900
C548        C  0.16159957  0.40727203  0.06341930     1.00000
C549        C  0.11408363  0.34896727  0.99069231     0.94900
O550        O  0.10660089  0.38209391  0.97557125    -0.81300
O551        O  0.18983626  0.44840746  0.24884823    -0.80700
C552        C  0.04492835  0.46232947  0.23750686     0.98600
O553        O  0.06734189  0.48150119  0.22279575    -0.69800
O554        O  0.10969568  0.52924352  0.25262785    -0.73400
Al555      Al  0.11648328  0.48443247  0.22535047     1.49000
C556        C  0.13104130  0.53866326  0.27138215     0.93900
O557        O  0.12320339  0.44187621  0.30579088    -0.79600
O558        O  0.13202346  0.35035702  0.24802253    -0.73200
Al559      Al  0.15479935  0.44521241  0.27604569     1.90100
O560        O  0.09030964  0.38725599  0.28982909    -0.72300
O561        O  0.09357675  0.38676003  0.20915951    -0.72100
O562        O  0.05256397  0.42766438  0.25133624    -0.77800
O563        O  0.12333643  0.44545335  0.19538438    -0.76000
O564        O  0.12163365  0.44046679  0.25040906    -1.12100
O565        O  0.16444411  0.49777345  0.22181522    -0.71300
C566        C  0.19080900  0.47601888  0.22910484     0.99400
C567        C  0.10076996  0.41185652  0.30964794     0.95800
Al568      Al  0.09420428  0.39212883  0.24962290     1.55600
O569        O  0.15260658  0.50983899  0.27972466    -0.75900
C570        C  0.11076126  0.40738507  0.19068838     1.00000
C571        C  0.15827438  0.34921255  0.26346721     0.94900
O572        O  0.16565160  0.38232103  0.27863051    -0.81300
O573        O  0.85807218  0.51246264  0.99397960    -0.80700
C574        C  0.91456848  0.68837201  0.00421423     0.98600
O575        O  0.92703961  0.65546982  0.99114961    -0.69800
O576        O  0.93781016  0.58279438  0.01982371    -0.73400
Al577      Al  0.91372034  0.59381381  0.98662099     1.49000
C578        C  0.93235853  0.54946449  0.03513522     0.93900
O579        O  0.85777491  0.58668851  0.05695300    -0.79600
O580        O  0.80707102  0.61436617  0.98844953    -0.73200
Al581      Al  0.85859582  0.55178843  0.02462833     1.90100
O582        O  0.83237524  0.64675174  0.03946865    -0.72300
O583        O  0.85782504  0.65812318  0.96205302    -0.72100
O584        O  0.88370095  0.68741636  0.01269921    -0.77800
O585        O  0.89492032  0.60477917  0.95156304    -0.76000
O586        O  0.87316533  0.59803269  0.00393000    -1.12100
O587        O  0.90942244  0.53050176  0.97793715    -0.71300
C588        C  0.88410791  0.50367307  0.97933193     0.99400
C589        C  0.84198030  0.62329287  0.06008747     0.95800
Al590      Al  0.84728123  0.64748637  0.00090324     1.55600
O591        O  0.90319293  0.53096214  0.03598689    -0.75900
C592        C  0.87561469  0.63661662  0.94443171     1.00000
C593        C  0.79366667  0.58102327  0.00065522     0.94900
O594        O  0.81038537  0.55987937  0.01875828    -0.81300
O595        O  0.91481913  0.51299057  0.76004562    -0.80700
C596        C  0.85816730  0.68884184  0.75011535     0.98600
O597        O  0.84581297  0.65592185  0.76323898    -0.69800
O598        O  0.83489767  0.58331346  0.73455046    -0.73400
Al599      Al  0.85918870  0.59427366  0.76766300     1.49000
C600        C  0.84027981  0.55003193  0.71918805     0.93900
O601        O  0.91472146  0.58734132  0.69711150    -0.79600
O602        O  0.96578309  0.61493529  0.76544867    -0.73200
Al603      Al  0.91410347  0.55238041  0.72941867     1.90100
O604        O  0.94018360  0.64740551  0.71452329    -0.72300
O605        O  0.91518213  0.65859604  0.79205019    -0.72100
O606        O  0.88898266  0.68794405  0.74150617    -0.77800
O607        O  0.87821694  0.60514819  0.80264501    -0.76000
O608        O  0.89963090  0.59857029  0.75019454    -1.12100
O609        O  0.86355582  0.53096389  0.77628485    -0.71300
C610        C  0.88888110  0.50417471  0.77480142     0.99400
C611        C  0.93046432  0.62397330  0.69393021     0.95800
Al612      Al  0.92550015  0.64804668  0.75315020     1.55600
O613        O  0.86944935  0.53155578  0.71821143    -0.75900
C614        C  0.89754087  0.63699091  0.80972674     1.00000
C615        C  0.97912368  0.58158766  0.75321183     0.94900
O616        O  0.96234352  0.56049821  0.73512411    -0.81300
O617        O  0.69008394  0.44848700  0.74871626    -0.80700
C618        C  0.54516126  0.46248171  0.73760476     0.98600
O619        O  0.56755474  0.48159199  0.72284563    -0.69800
O620        O  0.60995660  0.52933452  0.75265408    -0.73400
Al621      Al  0.61669599  0.48452814  0.72536060     1.49000
C622        C  0.63132672  0.53873272  0.77139747     0.93900
O623        O  0.62364564  0.44188105  0.80580464    -0.79600
O624        O  0.63220787  0.35042671  0.74800046    -0.73200
Al625      Al  0.65513231  0.44527139  0.77598319     1.90100
O626        O  0.59063830  0.38735492  0.78987601    -0.72300
O627        O  0.59368480  0.38690093  0.70922047    -0.72100
O628        O  0.55280920  0.42784708  0.75146083    -0.77800
O629        O  0.62350284  0.44552321  0.69540164    -0.76000
O630        O  0.62188769  0.44055928  0.75041426    -1.12100
O631        O  0.66464476  0.49790367  0.72175845    -0.71300
C632        C  0.69101593  0.47610650  0.72897906     0.99400
C633        C  0.60119426  0.41189238  0.80968878     0.95800
Al634      Al  0.59442330  0.39225151  0.74967337     1.55600
O635        O  0.65292087  0.50990488  0.77969698    -0.75900
C636        C  0.61088338  0.40746797  0.69073535     1.00000
C637        C  0.65853122  0.34927262  0.76336625     0.94900
O638        O  0.66599487  0.38238241  0.77850069    -0.81300
O639        O  0.58208872  0.44829854  0.50560930    -0.80700
C640        C  0.72704388  0.46249859  0.51657750     0.98600
O641        O  0.70464846  0.48160643  0.53133316    -0.69800
O642        O  0.66210532  0.52930923  0.50163174    -0.73400
Al643      Al  0.65549367  0.48442943  0.52890380     1.49000
C644        C  0.64069714  0.53869432  0.48291421     0.93900
O645        O  0.64845202  0.44188772  0.44844834    -0.79600
O646        O  0.64009079  0.35033118  0.50621377    -0.73200
Al647      Al  0.61700773  0.44518157  0.47830537     1.90100
O648        O  0.68155247  0.38741055  0.46432599    -0.72300
O649        O  0.67863087  0.38679092  0.54497569    -0.72100
O650        O  0.71940227  0.42786368  0.50272802    -0.77800
O651        O  0.64881877  0.44537014  0.55885398    -0.76000
O652        O  0.65030456  0.44048881  0.50383772    -1.12100
O653        O  0.60752693  0.49767210  0.53259014    -0.71300
C654        C  0.58116047  0.47585954  0.52537381     0.99400
C655        C  0.67093572  0.41195211  0.44453349     0.95800
Al656      Al  0.67782183  0.39222046  0.50452933     1.55600
O657        O  0.61913815  0.50982735  0.47461263    -0.75900
C658        C  0.66147678  0.40732960  0.56349383     1.00000
C659        C  0.61374379  0.34914953  0.49087818     0.94900
O660        O  0.60620625  0.38227462  0.47577425    -0.81300
O661        O  0.35759324  0.51290882  0.49421777    -0.80700
C662        C  0.41417631  0.68876565  0.50438394     0.98600
O663        O  0.42662414  0.65583754  0.49133065    -0.69800
O664        O  0.43739895  0.58316154  0.52000127    -0.73400
Al665      Al  0.41327932  0.59419860  0.48681080     1.49000
C666        C  0.43195443  0.54981708  0.53530229     0.93900
O667        O  0.35739281  0.58718439  0.55716288    -0.79600
O668        O  0.30666107  0.61476049  0.48863990    -0.73200
Al669      Al  0.35816790  0.55224698  0.52485593     1.90100
O670        O  0.33195805  0.64721306  0.53966105    -0.72300
O671        O  0.35739055  0.65852933  0.46224125    -0.72100
O672        O  0.38330350  0.68785671  0.51286901    -0.77800
O673        O  0.39446168  0.60515861  0.45176122    -0.76000
O674        O  0.37274114  0.59846127  0.50413538    -1.12100
O675        O  0.40893329  0.53090034  0.47813055    -0.71300
C676        C  0.38359399  0.50411386  0.47953167     0.99400
C677        C  0.34158425  0.62378189  0.56028638     0.95800
Al678      Al  0.34686249  0.64791672  0.50109240     1.55600
O679        O  0.40276838  0.53137162  0.53619078    -0.75900
C680        C  0.37515727  0.63698984  0.44462288     1.00000
C681        C  0.29326090  0.58141936  0.50085200     0.94900
O682        O  0.30995223  0.56036603  0.51901155    -0.81300
O683        O  0.41441615  0.51303371  0.26027335    -0.80700
C684        C  0.35802695  0.68901362  0.25024633     0.98600
O685        O  0.34558764  0.65611417  0.26333479    -0.69800
O686        O  0.33465197  0.58352343  0.23466167    -0.73400
Al687      Al  0.35887767  0.59445397  0.26780841     1.49000
C688        C  0.34002623  0.55022470  0.21931451     0.93900
O689        O  0.41456673  0.58737867  0.19734344    -0.79600
O690        O  0.46554866  0.61485506  0.26572541    -0.73200
Al691      Al  0.41382572  0.55242186  0.22964853     1.90100
O692        O  0.44005758  0.64740106  0.21478480    -0.72300
O693        O  0.41494793  0.65861465  0.29228479    -0.72100
O694        O  0.38887726  0.68806767  0.24171963    -0.77800
O695        O  0.37781428  0.60533271  0.30282134    -0.76000
O696        O  0.39937505  0.59865002  0.25040495    -1.12100
O697        O  0.36315073  0.53113228  0.27645763    -0.71300
C698        C  0.38843385  0.50426920  0.27498960     0.99400
C699        C  0.43035809  0.62397955  0.19418103     0.95800
Al700      Al  0.42531594  0.64806275  0.25339618     1.55600
O701        O  0.36917570  0.53169607  0.21837848    -0.75900
C702        C  0.39719831  0.63709696  0.30993146     1.00000
C703        C  0.47886270  0.58148452  0.25349151     0.94900
O704        O  0.46206076  0.56040927  0.23541284    -0.81300
C705        C  0.37550505  0.64946669  0.41583840    -0.17400
C706        C  0.38154131  0.65456013  0.39146828     0.06600
C707        C  0.39095285  0.65458343  0.36310025     0.08500
C708        C  0.39695204  0.64952987  0.33872185    -0.18300
C709        C  0.54924250  0.48434634  0.53911005    -0.17400
C710        C  0.52152346  0.49507594  0.54799978     0.06600
C711        C  0.48825707  0.51214324  0.55235903     0.08500
C712        C  0.46067007  0.52940805  0.54873570    -0.18300
C713        C  0.61772427  0.38805974  0.66375547    -0.17400
C714        C  0.62876883  0.38049016  0.64065115     0.06600
C715        C  0.64372355  0.38042545  0.61361587     0.08500
C716        C  0.65472981  0.38791866  0.59048953    -0.18300
C717        C  0.72293914  0.48467641  0.71528107    -0.17400
C718        C  0.75066039  0.49545323  0.70642442     0.06600
C719        C  0.78392860  0.51252299  0.70210771     0.08500
C720        C  0.81152490  0.52973454  0.70575893    -0.18300
C721        C  0.89734472  0.64940572  0.83852062    -0.17400
C722        C  0.89138777  0.65440702  0.86291013     0.06600
C723        C  0.88201236  0.65430240  0.89128674     0.08500
C724        C  0.87598388  0.64914330  0.91565370    -0.18300
C725        C  0.22276391  0.48463842  0.21546981    -0.17400
C726        C  0.25046421  0.49550735  0.20661511     0.06600
C727        C  0.28369030  0.51268317  0.20225578     0.08500
C728        C  0.31127283  0.52994471  0.20587771    -0.18300
C729        C  0.04958810  0.48413276  0.03895119    -0.17400
C730        C  0.02189806  0.49485289  0.04789165     0.06600
C731        C  0.98864321  0.51190778  0.05228128     0.08500
C732        C  0.96105364  0.52913560  0.04863061    -0.18300
C733        C  0.15475897  0.38792849  0.09042653    -0.17400
C734        C  0.14369638  0.38048585  0.11354711     0.06600
C735        C  0.12870441  0.38053752  0.14057768     0.08500
C736        C  0.11763684  0.38804366  0.16368788    -0.18300
C737        C  0.37521483  0.14966708  0.91576100    -0.17400
C738        C  0.38121403  0.15477592  0.89138696     0.06600
C739        C  0.39063880  0.15473794  0.86302256     0.08500
C740        C  0.39670304  0.14959575  0.83866170    -0.18300
C741        C  0.54953463  0.98432109  0.03890279    -0.17400
C742        C  0.52183779  0.99519478  0.04775611     0.06600
C743        C  0.48862251  0.01242473  0.05207177     0.08500
C744        C  0.46106143  0.02972917  0.04842369    -0.18300
C745        C  0.61744619  0.88785133  0.16382930    -0.17400
C746        C  0.62853133  0.88039212  0.14071844     0.06600
C747        C  0.64356267  0.88041813  0.11370076     0.08500
C748        C  0.65465851  0.88790311  0.09059462    -0.18300
C749        C  0.31165759  0.02957522  0.70572465    -0.17400
C750        C  0.28410859  0.01222845  0.70207937     0.06600
C751        C  0.25088763  0.99501171  0.70641974     0.08500
C752        C  0.22318628  0.98419226  0.71529932    -0.18300
C753        C  0.15440839  0.88811456  0.59058396    -0.17400
C754        C  0.14340638  0.88058085  0.61370761     0.06600
C755        C  0.12849954  0.88054728  0.64076047     0.08500
C756        C  0.11753468  0.88804751  0.66389748    -0.18300
C757        C  0.81120545  0.02924204  0.20566680    -0.17400
C758        C  0.78364728  0.01192868  0.20202257     0.06600
C759        C  0.75043606  0.99473041  0.20641251     0.08500
C760        C  0.72275692  0.98393450  0.21534141    -0.18300
C761        C  0.04899501  0.98420394  0.53895727    -0.17400
C762        C  0.02131048  0.99500395  0.54787313     0.06600
C763        C  0.98810694  0.01221231  0.55228622     0.08500
C764        C  0.96055560  0.02956880  0.54868451    -0.18300
C765        C  0.89642470  0.14901139  0.33862510    -0.17400
C766        C  0.89041485  0.15418341  0.36299215     0.06600
C767        C  0.88106441  0.15431843  0.39137220     0.08500
C768        C  0.87511683  0.14934075  0.41576472    -0.18300
C769        C  0.93748877  0.65756727  0.58787156    -0.17400
C770        C  0.94041510  0.65076341  0.61241956     0.06600
C771        C  0.94042997  0.64499426  0.64150793     0.08500
C772        C  0.93753389  0.63817369  0.66605746    -0.18300
C773        C  0.01326544  0.73015029  0.49416495    -0.17400
C774        C  0.04004496  0.75114890  0.49171949     0.06600
C775        C  0.06882064  0.78123518  0.49084490     0.08500
C776        C  0.09094690  0.81027695  0.49081394    -0.18300
C777        C  0.88639881  0.83469954  0.46629711    -0.17400
C778        C  0.88577369  0.87417454  0.46078022     0.06600
C779        C  0.88557201  0.92155829  0.46088959     0.08500
C780        C  0.88504509  0.96097423  0.46656356    -0.18300
C781        C  0.83592064  0.56776157  0.50891181    -0.17400
C782        C  0.81456822  0.53796863  0.51144661     0.06600
C783        C  0.78691185  0.50617048  0.51344363     0.08500
C784        C  0.76111924  0.48285940  0.51484970    -0.18300
C785        C  0.83449021  0.65710749  0.16607454    -0.17400
C786        C  0.83159029  0.65021035  0.14153716     0.06600
C787        C  0.83168216  0.64432350  0.11246174     0.08500
C788        C  0.83472339  0.63745142  0.08793201    -0.18300
C789        C  0.75861010  0.72988885  0.25971452    -0.17400
C790        C  0.73186087  0.75092678  0.26226230     0.06600
C791        C  0.70310122  0.78103370  0.26330491     0.08500
C792        C  0.68096899  0.81007104  0.26346786    -0.18300
C793        C  0.88500840  0.83419543  0.28784885    -0.17400
C794        C  0.88552760  0.87361395  0.29351080     0.06600
C795        C  0.88570129  0.92099460  0.29354698     0.08500
C796        C  0.88628896  0.96043618  0.28794219    -0.18300
C797        C  0.87501555  0.64569697  0.33845973    -0.17400
C798        C  0.88105731  0.64068455  0.36283394     0.06600
C799        C  0.89052818  0.64079419  0.39118721     0.08500
C800        C  0.89660615  0.64596010  0.41554284    -0.18300
C801        C  0.93598998  0.56749640  0.24514492    -0.17400
C802        C  0.95736404  0.53772678  0.24262398     0.06600
C803        C  0.98503809  0.50595292  0.24062934     0.08500
C804        C  0.01084020  0.48265973  0.23921943    -0.18300
C805        C  0.18300924  0.90461969  0.41661077    -0.17400
C806        C  0.18771868  0.90001606  0.39192117     0.06600
C807        C  0.18769540  0.89528187  0.36256280     0.08500
C808        C  0.18296519  0.89070589  0.33787459    -0.18300
C809        C  0.01308695  0.06490565  0.26002467    -0.17400
C810        C  0.03988894  0.04397800  0.26252176     0.06600
C811        C  0.06872164  0.01399782  0.26347406     0.08500
C812        C  0.09090589  0.98503640  0.26356680    -0.18300
C813        C  0.04920231  0.81106253  0.21538097    -0.17400
C814        C  0.02148053  0.80027206  0.20653140     0.06600
C815        C  0.98823054  0.78313394  0.20219699     0.08500
C816        C  0.96064959  0.76582622  0.20578897    -0.18300
C817        C  0.26111861  0.81263214  0.23944549    -0.17400
C818        C  0.28694108  0.78937851  0.24083902     0.06600
C819        C  0.31464527  0.75765473  0.24283395     0.08500
C820        C  0.33603500  0.72791194  0.24537554    -0.18300
C821        C  0.13248504  0.58404206  0.28161285    -0.17400
C822        C  0.13446001  0.62396146  0.28589625     0.06600
C823        C  0.13708788  0.67141522  0.28592306     0.08500
C824        C  0.13910873  0.71134369  0.28167882    -0.18300
C825        C  0.08941613  0.90482531  0.83789459    -0.17400
C826        C  0.08466917  0.90029434  0.86258474     0.06600
C827        C  0.08461023  0.89561334  0.89194553     0.08500
C828        C  0.08927526  0.89101720  0.91663987    -0.18300
C829        C  0.93651871  0.72731603  0.00907973    -0.17400
C830        C  0.95781785  0.75717489  0.01160691     0.06600
C831        C  0.98540334  0.78908052  0.01358994     0.08500
C832        C  0.01115041  0.81247799  0.01498883    -0.18300
C833        C  0.13950130  0.58397293  0.97259908    -0.17400
C834        C  0.13750711  0.62392043  0.96838000     0.06600
C835        C  0.13491397  0.67139305  0.96842351     0.08500
C836        C  0.13295025  0.71132203  0.97271096    -0.18300
C837        C  0.15458258  0.90745730  0.16389706    -0.17400
C838        C  0.14354342  0.91492425  0.14077945     0.06600
C839        C  0.12858839  0.91486063  0.11374654     0.08500
C840        C  0.11758225  0.90731989  0.09062889    -0.18300
C841        C  0.25900013  0.06520260  0.99459965    -0.17400
C842        C  0.23226545  0.04411822  0.99212241     0.06600
C843        C  0.20351652  0.01399333  0.99116546     0.08500
C844        C  0.18136958  0.98497776  0.99104799    -0.18300
C845        C  0.33449167  0.65748394  0.66627051    -0.17400
C846        C  0.33143541  0.65063311  0.64174198     0.06600
C847        C  0.33137655  0.64480745  0.61266419     0.08500
C848        C  0.33434501  0.63796150  0.58812738    -0.18300
C849        C  0.43633828  0.56785173  0.74519388    -0.17400
C850        C  0.45767957  0.53803966  0.74268269     0.06600
C851        C  0.48531302  0.50620034  0.74071671     0.08500
C852        C  0.51108765  0.48285155  0.73932848    -0.18300
C853        C  0.18131925  0.81031857  0.76349968    -0.17400
C854        C  0.20344537  0.78128073  0.76337780     0.06600
C855        C  0.23221570  0.75119938  0.76240784     0.08500
C856        C  0.25898700  0.73020400  0.75991284    -0.18300
C857        C  0.38557172  0.83466810  0.78782630    -0.17400
C858        C  0.38608998  0.87409476  0.79347226     0.06600
C859        C  0.38623718  0.92147869  0.79351014     0.08500
C860        C  0.38680017  0.96092987  0.78792486    -0.18300
C861        C  0.43759068  0.65739756  0.08811814    -0.17400
C862        C  0.44049381  0.65061882  0.11267094     0.06600
C863        C  0.44045997  0.64491794  0.14176492     0.08500
C864        C  0.43750771  0.63815004  0.16631580    -0.18300
C865        C  0.26137621  0.48274593  0.01486252    -0.17400
C866        C  0.28712620  0.50613451  0.01348318     0.06600
C867        C  0.31472750  0.53801207  0.01153038     0.08500
C868        C  0.33605177  0.56784382  0.00903927    -0.18300
C869        C  0.22299398  0.81102907  0.03907022    -0.17400
C870        C  0.25070134  0.80031255  0.04797493     0.06600
C871        C  0.28395652  0.78325043  0.05235492     0.08500
C872        C  0.31154226  0.76599665  0.04872536    -0.18300
C873        C  0.39681790  0.64629003  0.91574486    -0.17400
C874        C  0.39083710  0.64124610  0.89136276     0.06600
C875        C  0.38151696  0.64125364  0.86297532     0.08500
C876        C  0.37557493  0.64629827  0.83858650    -0.18300
C877        C  0.59116043  0.81020264  0.99089767    -0.17400
C878        C  0.56899217  0.78121795  0.99099384     0.06600
C879        C  0.54019737  0.75117319  0.99195003     0.08500
C880        C  0.51342390  0.73018080  0.99444911    -0.18300
C881        C  0.38550540  0.96094169  0.96640308    -0.17400
C882        C  0.38606617  0.92149734  0.96081112     0.06600
C883        C  0.38626038  0.87411595  0.96085796     0.08500
C884        C  0.38683084  0.83469008  0.96650695    -0.18300
C885        C  0.58895353  0.89092007  0.41660315    -0.17400
C886        C  0.58422858  0.89540140  0.39190603     0.06600
C887        C  0.58421372  0.89995328  0.36253387     0.08500
C888        C  0.58891185  0.90442519  0.33783134    -0.18300
C889        C  0.68117398  0.98506581  0.49088047    -0.17400
C890        C  0.70329546  0.01411339  0.49099796     0.06600
C891        C  0.73201309  0.04428323  0.49199145     0.08500
C892        C  0.75872390  0.06539979  0.49452206    -0.18300
C893        C  0.72289485  0.81102520  0.53888291    -0.17400
C894        C  0.75058160  0.80022473  0.54778281     0.06600
C895        C  0.78380412  0.78307033  0.55215519     0.08500
C896        C  0.81137092  0.76579272  0.54849657    -0.18300
C897        C  0.43617702  0.72766920  0.50923833    -0.17400
C898        C  0.45755891  0.75743611  0.51174232     0.06600
C899        C  0.48523647  0.78921729  0.51369662     0.08500
C900        C  0.51102809  0.81253991  0.51507024    -0.18300
C901        C  0.63919786  0.58407815  0.47267211    -0.17400
C902        C  0.63724076  0.62400594  0.46838690     0.06600
C903        C  0.63468370  0.67147456  0.46836812     0.08500
C904        C  0.63274349  0.71140795  0.47263005    -0.18300
C905        C  0.68342887  0.90427962  0.91661096    -0.17400
C906        C  0.68813802  0.89979618  0.89191259     0.06600
C907        C  0.68811566  0.89524895  0.86254283     0.08500
C908        C  0.68337027  0.89079381  0.83784834    -0.18300
C909        C  0.76130885  0.81260076  0.73944228    -0.17400
C910        C  0.78709601  0.78928034  0.74083414     0.06600
C911        C  0.81475520  0.75748595  0.74280509     0.08500
C912        C  0.83613126  0.72771768  0.74530651    -0.18300
C913        C  0.63275373  0.58409548  0.78167145    -0.17400
C914        C  0.63470044  0.62401030  0.78599674     0.06600
C915        C  0.63730224  0.67147448  0.78606648     0.08500
C916        C  0.63931806  0.71141394  0.78184124    -0.18300
C917        C  0.46089742  0.76610106  0.70565222    -0.17400
C918        C  0.48849717  0.78336673  0.70209945     0.06600
C919        C  0.52174261  0.80042189  0.70654861     0.08500
C920        C  0.54943592  0.81114302  0.71548004    -0.18300
C921        C  0.65461004  0.90728739  0.66388073    -0.17400
C922        C  0.64356127  0.91477043  0.64076512     0.06600
C923        C  0.62862077  0.91477918  0.61372266     0.08500
C924        C  0.61761779  0.90730364  0.59059340    -0.18300
C925        C  0.51347506  0.06534987  0.76015213    -0.17400
C926        C  0.54023411  0.04431363  0.76265979     0.06600
C927        C  0.56901610  0.01422355  0.76359670     0.08500
C928        C  0.59116429  0.98520035  0.76365953    -0.18300
C929        C  0.08875730  0.40447927  0.33766879    -0.17400
C930        C  0.08407240  0.39995220  0.36236971     0.06600
C931        C  0.08414042  0.39533617  0.39173928     0.08500
C932        C  0.08891038  0.39083548  0.41643062    -0.18300
C933        C  0.01094597  0.31266710  0.51479796    -0.17400
C934        C  0.98517279  0.28932592  0.51339096     0.06600
C935        C  0.95752207  0.25751992  0.51143701     0.08500
C936        C  0.93614833  0.22774317  0.50896962    -0.18300
C937        C  0.13273001  0.21142776  0.47259654    -0.17400
C938        C  0.13462595  0.17148790  0.46834030     0.06600
C939        C  0.13709755  0.12401029  0.46834838     0.08500
C940        C  0.13899724  0.08407555  0.47262667    -0.18300
C941        C  0.18114536  0.48512696  0.49070222    -0.17400
C942        C  0.20330548  0.51412829  0.49082013     0.06600
C943        C  0.23208318  0.54420939  0.49181235     0.08500
C944        C  0.25883525  0.56524316  0.49434736    -0.18300
C945        C  0.18334329  0.40455661  0.91641573    -0.17400
C946        C  0.18803843  0.40009910  0.89171134     0.06600
C947        C  0.18803170  0.39556833  0.86233637     0.08500
C948        C  0.18333042  0.39110923  0.83763396    -0.18300
C949        C  0.01357677  0.56543279  0.75962571    -0.17400
C950        C  0.04033018  0.54440092  0.76213358     0.06600
C951        C  0.06908590  0.51429417  0.76312743     0.08500
C952        C  0.09121870  0.48526274  0.76325700    -0.18300
C953        C  0.33613978  0.22777349  0.74523364    -0.17400
C954        C  0.31481680  0.25759704  0.74268454     0.06600
C955        C  0.28721738  0.28947502  0.74067915     0.08500
C956        C  0.26146509  0.31285758  0.73926791    -0.18300
C957        C  0.13348105  0.08419697  0.78163831    -0.17400
C958        C  0.13543757  0.12414400  0.78587678     0.06600
C959        C  0.13791532  0.17163267  0.78586714     0.08500
C960        C  0.13977401  0.21158097  0.78159965    -0.18300
C961        C  0.15485239  0.40750926  0.66360977    -0.17400
C962        C  0.14376726  0.41499101  0.64050259     0.06600
C963        C  0.12871430  0.41502339  0.61349592     0.08500
C964        C  0.11759029  0.40756448  0.59039947    -0.18300
C965        C  0.43748255  0.15766963  0.58816171    -0.17400
C966        C  0.44051814  0.15086064  0.61270396     0.06600
C967        C  0.44064992  0.14506409  0.64179511     0.08500
C968        C  0.43779450  0.13821471  0.66634763    -0.18300
C969        C  0.26091293  0.98310164  0.51501974    -0.17400
C970        C  0.28671192  0.00641117  0.51362974     0.06600
C971        C  0.31440642  0.03816661  0.51165093     0.08500
C972        C  0.33580537  0.06791080  0.50912680    -0.18300
C973        C  0.51319467  0.23029780  0.49449703    -0.17400
C974        C  0.53997084  0.25129464  0.49201352     0.06600
C975        C  0.56875942  0.28135518  0.49105116     0.08500
C976        C  0.59091201  0.31036270  0.49093231    -0.18300
C977        C  0.38540701  0.46093047  0.46647435    -0.17400
C978        C  0.38591356  0.42150594  0.46082820     0.06600
C979        C  0.38602019  0.37412542  0.46081112     0.08500
C980        C  0.38654130  0.33468907  0.46643259    -0.18300
C981        C  0.22275749  0.31119348  0.53889452    -0.17400
C982        C  0.25042720  0.30037950  0.54782624     0.06600
C983        C  0.28363526  0.28319388  0.55223929     0.08500
C984        C  0.31120714  0.26589805  0.54862701    -0.18300
C985        C  0.33452912  0.15752019  0.16629856    -0.17400
C986        C  0.33159597  0.15063847  0.14176329     0.06600
C987        C  0.33168446  0.14476948  0.11268844     0.08500
C988        C  0.33473400  0.13791489  0.08815860    -0.18300
C989        C  0.25887889  0.23037732  0.25998873    -0.17400
C990        C  0.23213284  0.25143576  0.26248092     0.06600
C991        C  0.20335413  0.28151699  0.26341033     0.08500
C992        C  0.18117570  0.31049267  0.26347823    -0.18300
C993        C  0.38656325  0.46103623  0.28799260    -0.17400
C994        C  0.38600999  0.42158318  0.29357385     0.06600
C995        C  0.38587773  0.37419822  0.29352913     0.08500
C996        C  0.38536889  0.33476683  0.28789285    -0.18300
C997        C  0.51093605  0.98285293  0.23946547    -0.17400
C998        C  0.48519445  0.00626287  0.24086060     0.06600
C999        C  0.45758549  0.03814033  0.24282288     0.08500
C1000       C  0.43624190  0.06795337  0.24532235    -0.18300
C1001       C  0.37534744  0.14615382  0.33864211    -0.17400
C1002       C  0.38132900  0.14104822  0.36302027     0.06600
C1003       C  0.39069867  0.14103309  0.39139797     0.08500
C1004       C  0.39670153  0.14611836  0.41577385    -0.18300
C1005       C  0.68282465  0.39076155  0.33773988    -0.17400
C1006       C  0.68752688  0.39532600  0.36243222     0.06600
C1007       C  0.68753880  0.40002303  0.39179313     0.08500
C1008       C  0.68285607  0.40459970  0.41648833    -0.18300
C1009       C  0.59097885  0.48512581  0.26331065    -0.17400
C1010       C  0.56884943  0.51416487  0.26322879     0.06600
C1011       C  0.54008247  0.54426634  0.26231973     0.08500
C1012       C  0.51332012  0.56530390  0.25987685    -0.18300
C1013       C  0.76103297  0.31232496  0.23944060    -0.17400
C1014       C  0.78680415  0.28897373  0.24084366     0.06600
C1015       C  0.81444101  0.25714285  0.24281655     0.08500
C1016       C  0.83578132  0.22732888  0.24531809    -0.18300
C1017       C  0.63899321  0.21128653  0.28159234    -0.17400
C1018       C  0.63710189  0.17133947  0.28585670     0.06600
C1019       C  0.63467535  0.12384593  0.28588337     0.08500
C1020       C  0.63280990  0.08388763  0.28165911    -0.18300
C1021       C  0.54922074  0.31119026  0.21511831    -0.17400
C1022       C  0.52152635  0.30040867  0.20622190     0.06600
C1023       C  0.48828778  0.28324891  0.20191856     0.08500
C1024       C  0.46072865  0.26597191  0.20563738    -0.18300
C1025       C  0.58924793  0.40448263  0.83772454    -0.17400
C1026       C  0.58456390  0.39989455  0.86242102     0.06600
C1027       C  0.58459318  0.39519989  0.89178521     0.08500
C1028       C  0.58932813  0.39064116  0.91647619    -0.18300
C1029       C  0.61787013  0.40728034  0.09043426    -0.17400
C1030       C  0.62890168  0.41481168  0.11354510     0.06600
C1031       C  0.64382827  0.41482428  0.14058766     0.08500
C1032       C  0.65479561  0.40731519  0.16372185    -0.18300
C1033       C  0.51134775  0.31232620  0.01487817    -0.17400
C1034       C  0.48552045  0.28907782  0.01348233     0.06600
C1035       C  0.45778744  0.25738804  0.01150737     0.08500
C1036       C  0.43635700  0.22768477  0.00899993    -0.18300
C1037       C  0.63973717  0.08382710  0.97259032    -0.17400
C1038       C  0.63784515  0.12376627  0.96831670     0.06600
C1039       C  0.63533489  0.17124456  0.96832053     0.08500
C1040       C  0.63338401  0.21117884  0.97259059    -0.18300
C1041       C  0.68142961  0.48498021  0.99073905    -0.17400
C1042       C  0.70358322  0.51398785  0.99081949     0.06600
C1043       C  0.73239171  0.54401928  0.99174601     0.08500
C1044       C  0.75919168  0.56496541  0.99421726    -0.18300
C1045       C  0.83473241  0.15785145  0.66627185    -0.17400
C1046       C  0.83164119  0.15103257  0.64174595     0.06600
C1047       C  0.83152671  0.14522475  0.61267202     0.08500
C1048       C  0.83445241  0.13836993  0.58813595    -0.18300
C1049       C  0.75921234  0.23056383  0.75987548    -0.17400
C1050       C  0.73243416  0.25156615  0.76232882     0.06600
C1051       C  0.70361754  0.28158835  0.76324018     0.08500
C1052       C  0.68142073  0.31054051  0.76332252    -0.18300
C1053       C  0.88710670  0.46097819  0.78785504    -0.17400
C1054       C  0.88657591  0.42155799  0.79351852     0.06600
C1055       C  0.88643334  0.37417842  0.79355633     0.08500
C1056       C  0.88590296  0.33474564  0.78793515    -0.18300
C1057       C  0.93644294  0.06790942  0.74528235    -0.17400
C1058       C  0.95780846  0.03812090  0.74281986     0.06600
C1059       C  0.98548634  0.00634834  0.74090080     0.08500
C1060       C  0.01128915  0.98305469  0.73953896    -0.18300
C1061       C  0.04966720  0.31114532  0.71515924    -0.17400
C1062       C  0.02198153  0.30033865  0.70625533     0.06600
C1063       C  0.98874168  0.28320261  0.70191515     0.08500
C1064       C  0.96115942  0.26596580  0.70559758    -0.18300
C1065       C  0.93748755  0.13746977  0.16628210    -0.17400
C1066       C  0.94051745  0.14423552  0.14173350     0.06600
C1067       C  0.94064371  0.14996606  0.11263628     0.08500
C1068       C  0.93779870  0.15678398  0.08807972    -0.18300
C1069       C  0.81176297  0.26565741  0.04859282    -0.17400
C1070       C  0.78420146  0.28301727  0.05216413     0.06600
C1071       C  0.75099216  0.30022734  0.04775261     0.08500
C1072       C  0.72329923  0.31104570  0.03885905    -0.18300
C1073       C  0.87577875  0.14615882  0.83855777    -0.17400
C1074       C  0.88177712  0.14097026  0.86292434     0.06600
C1075       C  0.89113421  0.14085046  0.89130098     0.08500
C1076       C  0.89711145  0.14584627  0.91568588    -0.18300
C1077       C  0.83624506  0.06741309  0.00901933    -0.17400
C1078       C  0.81485414  0.03766339  0.01153876     0.06600
C1079       C  0.78717603  0.00589723  0.01353567     0.08500
C1080       C  0.76138634  0.98258379  0.01495941    -0.18300
C1081       C  0.09125531  0.31016130  0.99069501    -0.17400
C1082       C  0.06912298  0.28111736  0.99080625     0.06600
C1083       C  0.04037440  0.25097699  0.99180912     0.08500
C1084       C  0.01364557  0.22988404  0.99435529    -0.18300
C1085       C  0.88599609  0.46044391  0.96633237    -0.17400
C1086       C  0.88655811  0.42099325  0.96075209     0.06600
C1087       C  0.88669848  0.37360930  0.96079982     0.08500
C1088       C  0.88720649  0.33418235  0.96645157    -0.18300
loop_ 
_geom_bond_atom_site_label_1 
_geom_bond_atom_site_label_2 
_geom_bond_distance 
_geom_bond_site_symmetry_2 
_ccdc_geom_bond_type 
O1           C16   1.259       .  A
O1           Al9   1.885   1_556  S
C2           O12   1.264       .  A
C2            O3   1.260   1_554  A
C2         C1077   1.456       .  S
O3           Al5   1.917       .  S
O4            C6   1.254       .  A
O4           Al5   1.882   1_554  S
Al5          O13   1.869       .  S
Al5          O15   1.936       .  S
Al5          O14   1.783   1_556  S
C6           O19   1.257       .  A
C6         C1069   1.423       .  S
O7           C17   1.258       .  A
O7           Al9   1.873       .  S
O8           C21   1.264   1_556  A
O8          Al18   1.939   1_556  S
Al9          O22   1.904       .  S
Al9          O19   1.915       .  S
Al9          O14   1.790       .  S
O10          C17   1.270       .  A
O10         Al18   1.948       .  S
O11          C20   1.267       .  A
O11         Al18   1.943   1_556  S
O12         Al18   1.930       .  S
O13          C20   1.254       .  A
O14         Al18   1.786       .  S
O15          C16   1.266       .  A
C16        C1088   1.432       .  S
C17        C1068   1.435       .  S
C20        C1076   1.437       .  S
C21          O22   1.256       .  A
C21        C1084   1.452   1_654  S
O23          C38   1.258       .  A
O23         Al31   1.884       .  S
C24          O34   1.264       .  A
C24          O25   1.260       .  A
C24        C1057   1.456       .  S
O25         Al27   1.917       .  S
O26          C28   1.254       .  A
O26         Al27   1.882       .  S
Al27         O35   1.869       .  S
Al27         O37   1.936       .  S
Al27         O36   1.783       .  S
C28          O41   1.257       .  A
C28        C1064   1.423       .  S
O29          C39   1.258       .  A
O29         Al31   1.873       .  S
O30          C43   1.264       .  A
O30         Al40   1.938       .  S
Al31         O44   1.904       .  S
Al31         O41   1.915       .  S
Al31         O36   1.790       .  S
O32          C39   1.270       .  A
O32         Al40   1.947       .  S
O33          C42   1.267       .  A
O33         Al40   1.942       .  S
O34         Al40   1.930       .  S
O35          C42   1.254       .  A
O36         Al40   1.786       .  S
O37          C38   1.266       .  A
C38        C1056   1.432       .  S
C39        C1045   1.434       .  S
C42        C1073   1.436       .  S
C43          O44   1.255       .  A
C43        C1049   1.452       .  S
O45          C60   1.258       .  A
O45         Al53   1.890   1_554  S
C46          O56   1.263       .  A
C46          O47   1.258       .  A
C46        C1033   1.454       .  S
O47         Al49   1.909       .  S
O48          C50   1.257   1_554  A
O48         Al49   1.891       .  S
Al49         O57   1.871       .  S
Al49         O59   1.907       .  S
Al49         O58   1.791       .  S
C50          O63   1.263       .  A
C50        C1040   1.438       .  S
O51          C61   1.260       .  A
O51         Al53   1.888       .  S
O52          C65   1.261   1_554  A
O52         Al62   1.922       .  S
Al53         O66   1.921       .  S
Al53         O63   1.932       .  S
Al53         O58   1.789   1_556  S
O54          C61   1.270       .  A
O54         Al62   1.949   1_556  S
O55          C64   1.269       .  A
O55         Al62   1.957       .  S
O56         Al62   1.930       .  S
O57          C64   1.253       .  A
O58         Al62   1.788       .  S
O59          C60   1.259       .  A
C60        C1072   1.425       .  S
C61        C1028   1.445       .  S
C64        C1029   1.448       .  S
C65          O66   1.259       .  A
C65        C1041   1.453       .  S
O67          C82   1.258       .  A
O67         Al75   1.889       .  S
C68          O78   1.263       .  A
C68          O69   1.257       .  A
C68        C1013   1.454       .  S
O69         Al71   1.909       .  S
O70          C72   1.257       .  A
O70         Al71   1.891       .  S
Al71         O79   1.871       .  S
Al71         O81   1.907       .  S
Al71         O80   1.791       .  S
C72          O85   1.263       .  A
C72        C1017   1.439       .  S
O73          C83   1.260       .  A
O73         Al75   1.888       .  S
O74          C87   1.261       .  A
O74         Al84   1.922       .  S
Al75         O88   1.921       .  S
Al75         O85   1.933       .  S
Al75         O80   1.788       .  S
O76          C83   1.270       .  A
O76         Al84   1.949       .  S
O77          C86   1.269       .  A
O77         Al84   1.957       .  S
O78         Al84   1.930       .  S
O79          C86   1.253       .  A
O80         Al84   1.788       .  S
O81          C82   1.259       .  A
C82        C1021   1.425       .  S
C83        C1005   1.445       .  S
C86        C1032   1.448       .  S
C87          O88   1.259       .  A
C87        C1009   1.453       .  S
O89         C104   1.258       .  A
O89         Al97   1.885       .  S
C90         O100   1.264       .  A
C90          O91   1.260       .  A
C90        C1000   1.456       .  S
O91         Al93   1.917       .  S
O92          C94   1.254       .  A
O92         Al93   1.882       .  S
Al93        O101   1.869       .  S
Al93        O103   1.936       .  S
Al93        O102   1.783       .  S
C94         O107   1.257       .  A
C94        C1024   1.423       .  S
O95         C105   1.258       .  A
O95         Al97   1.873       .  S
O96         C109   1.264       .  A
O96        Al106   1.938       .  S
Al97        O110   1.904       .  S
Al97        O107   1.915       .  S
Al97        O102   1.790       .  S
O98         C105   1.270       .  A
O98        Al106   1.947       .  S
O99         C108   1.267       .  A
O99        Al106   1.943       .  S
O100       Al106   1.930       .  S
O101        C108   1.254       .  A
O102       Al106   1.786       .  S
O103        C104   1.266       .  A
C104        C996   1.432       .  S
C105        C985   1.435       .  S
C108       C1001   1.437       .  S
C109        O110   1.256       .  A
C109        C989   1.452       .  S
O111        C126   1.258       .  A
O111       Al119   1.885       .  S
C112        O122   1.264       .  A
C112        O113   1.260       .  A
C112        C972   1.456       .  S
O113       Al115   1.917       .  S
O114        C116   1.254       .  A
O114       Al115   1.882       .  S
Al115       O123   1.869       .  S
Al115       O125   1.936       .  S
Al115       O124   1.783       .  S
C116        O129   1.257       .  A
C116        C984   1.423       .  S
O117        C127   1.258       .  A
O117       Al119   1.873       .  S
O118        C131   1.264       .  A
O118       Al128   1.938       .  S
Al119       O132   1.904       .  S
Al119       O129   1.915       .  S
Al119       O124   1.790       .  S
O120        C127   1.270       .  A
O120       Al128   1.947       .  S
O121        C130   1.267       .  A
O121       Al128   1.943       .  S
O122       Al128   1.930       .  S
O123        C130   1.254       .  A
O124       Al128   1.786       .  S
O125        C126   1.266       .  A
C126        C980   1.432       .  S
C127        C965   1.435       .  S
C130       C1004   1.437       .  S
C131        O132   1.256       .  A
C131        C973   1.452       .  S
O133        C148   1.258       .  A
O133       Al141   1.889       .  S
C134        O144   1.263       .  A
C134        O135   1.257       .  A
C134        C956   1.454       .  S
O135       Al137   1.909       .  S
O136        C138   1.257       .  A
O136       Al137   1.891       .  S
Al137       O145   1.871       .  S
Al137       O147   1.907       .  S
Al137       O146   1.791       .  S
C138        O151   1.263       .  A
C138        C960   1.439       .  S
O139        C149   1.260       .  A
O139       Al141   1.888       .  S
O140        C153   1.261       .  A
O140       Al150   1.922       .  S
Al141       O154   1.921       .  S
Al141       O151   1.933       .  S
Al141       O146   1.788       .  S
O142        C149   1.270       .  A
O142       Al150   1.950       .  S
O143        C152   1.270       .  A
O143       Al150   1.958       .  S
O144       Al150   1.930       .  S
O145        C152   1.253       .  A
O146       Al150   1.788       .  S
O147        C148   1.259       .  A
C148       C1061   1.425       .  S
C149        C948   1.446       .  S
C152        C961   1.448       .  S
C153        O154   1.259       .  A
C153        C952   1.453       .  S
O155        C170   1.258       .  A
O155       Al163   1.889       .  S
C156        O166   1.263       .  A
C156        O157   1.257       .  A
C156        C933   1.454       .  S
O157       Al159   1.909       .  S
O158        C160   1.257       .  A
O158       Al159   1.891       .  S
Al159       O167   1.871       .  S
Al159       O169   1.907       .  S
Al159       O168   1.791       .  S
C160        O173   1.263       .  A
C160        C937   1.438       .  S
O161        C171   1.260       .  A
O161       Al163   1.888       .  S
O162        C175   1.261       .  A
O162       Al172   1.922       .  S
Al163       O176   1.921       .  S
Al163       O173   1.933       .  S
Al163       O168   1.788       .  S
O164        C171   1.270       .  A
O164       Al172   1.949       .  S
O165        C174   1.270       .  A
O165       Al172   1.958       .  S
O166       Al172   1.930       .  S
O167        C174   1.253       .  A
O168       Al172   1.788       .  S
O169        C170   1.259       .  A
C170        C981   1.424       .  S
C171        C932   1.446       .  S
C174        C964   1.448       .  S
C175        O176   1.259       .  A
C175        C941   1.454       .  S
O177        C192   1.258       .  A
O177       Al185   1.889       .  S
C178        O188   1.263       .  A
C178        O179   1.257       .  A
C178        C909   1.454       .  S
O179       Al181   1.909       .  S
O180        C182   1.257       .  A
O180       Al181   1.891       .  S
Al181       O189   1.871       .  S
Al181       O191   1.907       .  S
Al181       O190   1.791       .  S
C182        O195   1.263       .  A
C182        C916   1.438       .  S
O183        C193   1.260       .  A
O183       Al185   1.888       .  S
O184        C197   1.261       .  A
O184       Al194   1.922       .  S
Al185       O198   1.921       .  S
Al185       O195   1.932       .  S
Al185       O190   1.788       .  S
O186        C193   1.270       .  A
O186       Al194   1.949       .  S
O187        C196   1.270       .  A
O187       Al194   1.957       .  S
O188       Al194   1.930       .  S
O189        C196   1.253       .  A
O190       Al194   1.788       .  S
O191        C192   1.259       .  A
C192        C920   1.425       .  S
C193        C908   1.445       .  S
C196        C921   1.448       .  S
C197        O198   1.259       .  A
C197        C928   1.454       .  S
O199        C214   1.257       .  A
O199       Al207   1.889       .  S
C200        O210   1.263       .  A
C200        O201   1.257       .  A
C200        C900   1.455       .  S
O201       Al203   1.909       .  S
O202        C204   1.257       .  A
O202       Al203   1.891       .  S
Al203       O211   1.871       .  S
Al203       O213   1.907       .  S
Al203       O212   1.791       .  S
C204        O217   1.263       .  A
C204        C904   1.438       .  S
O205        C215   1.259       .  A
O205       Al207   1.888       .  S
O206        C219   1.261       .  A
O206       Al216   1.922       .  S
Al207       O220   1.921       .  S
Al207       O217   1.933       .  S
Al207       O212   1.788       .  S
O208        C215   1.270       .  A
O208       Al216   1.950       .  S
O209        C218   1.270       .  A
O209       Al216   1.958       .  S
O210       Al216   1.930       .  S
O211        C218   1.253       .  A
O212       Al216   1.788       .  S
O213        C214   1.259       .  A
C214        C893   1.424       .  S
C215        C885   1.445       .  S
C218        C924   1.448       .  S
C219        O220   1.259       .  A
C219        C889   1.453       .  S
O221        C236   1.259       .  A
O221       Al229   1.885   1_556  S
C222        O232   1.264       .  A
C222        O223   1.260   1_554  A
C222        C868   1.455       .  S
O223       Al225   1.917       .  S
O224        C226   1.254       .  A
O224       Al225   1.882   1_554  S
Al225       O233   1.869       .  S
Al225       O235   1.936       .  S
Al225       O234   1.783   1_556  S
C226        O239   1.257       .  A
C226        C872   1.423       .  S
O227        C237   1.258       .  A
O227       Al229   1.872       .  S
O228        C241   1.264   1_556  A
O228       Al238   1.938   1_556  S
Al229       O242   1.904       .  S
Al229       O239   1.915       .  S
Al229       O234   1.790       .  S
O230        C237   1.270       .  A
O230       Al238   1.948       .  S
O231        C240   1.267       .  A
O231       Al238   1.943   1_556  S
O232       Al238   1.929       .  S
O233        C240   1.254       .  A
O234       Al238   1.786       .  S
O235        C236   1.266       .  A
C236        C884   1.432       .  S
C237        C861   1.435       .  S
C240        C873   1.437       .  S
C241        O242   1.255       .  A
C241        C880   1.452   1_554  S
O243        C258   1.258       .  A
O243       Al251   1.885       .  S
C244        O254   1.264       .  A
C244        O245   1.260       .  A
C244        C849   1.456       .  S
O245       Al247   1.917       .  S
O246        C248   1.254       .  A
O246       Al247   1.882       .  S
Al247       O255   1.869       .  S
Al247       O257   1.936       .  S
Al247       O256   1.783       .  S
C248        O261   1.257       .  A
C248        C917   1.423       .  S
O249        C259   1.258       .  A
O249       Al251   1.873       .  S
O250        C263   1.264       .  A
O250       Al260   1.938       .  S
Al251       O264   1.904       .  S
Al251       O261   1.915       .  S
Al251       O256   1.790       .  S
O252        C259   1.270       .  A
O252       Al260   1.947       .  S
O253        C262   1.267       .  A
O253       Al260   1.943       .  S
O254       Al260   1.930       .  S
O255        C262   1.254       .  A
O256       Al260   1.786       .  S
O257        C258   1.266       .  A
C258        C857   1.432       .  S
C259        C845   1.435       .  S
C262        C876   1.437       .  S
C263        O264   1.256       .  A
C263        C856   1.452       .  S
O265        C280   1.257       .  A
O265       Al273   1.889   1_554  S
C266        O276   1.263       .  A
C266        O267   1.258       .  A
C266        C832   1.454       .  S
O267       Al269   1.909       .  S
O268        C270   1.257   1_554  A
O268       Al269   1.891       .  S
Al269       O277   1.871       .  S
Al269       O279   1.907       .  S
Al269       O278   1.791       .  S
C270        O283   1.263       .  A
C270        C836   1.438       .  S
O271        C281   1.259       .  A
O271       Al273   1.888       .  S
O272        C285   1.261   1_554  A
O272       Al282   1.922       .  S
Al273       O286   1.921       .  S
Al273       O283   1.933       .  S
Al273       O278   1.788   1_556  S
O274        C281   1.270       .  A
O274       Al282   1.949   1_556  S
O275        C284   1.269       .  A
O275       Al282   1.957       .  S
O276       Al282   1.930       .  S
O277        C284   1.253       .  A
O278       Al282   1.788       .  S
O279        C280   1.259       .  A
C280        C869   1.425       .  S
C281        C828   1.445       .  S
C284        C840   1.448       .  S
C285        O286   1.259       .  A
C285        C844   1.453       .  S
O287        C302   1.258       .  A
O287       Al295   1.890       .  S
C288        O298   1.263       .  A
C288        O289   1.257       .  A
C288        C817   1.454       .  S
O289       Al291   1.909       .  S
O290        C292   1.257       .  A
O290       Al291   1.891       .  S
Al291       O299   1.871       .  S
Al291       O301   1.908       .  S
Al291       O300   1.791       .  S
C292        O305   1.263       .  A
C292        C824   1.438       .  S
O293        C303   1.260       .  A
O293       Al295   1.888       .  S
O294        C307   1.261       .  A
O294       Al304   1.922       .  S
Al295       O308   1.921       .  S
Al295       O305   1.932       .  S
Al295       O300   1.788       .  S
O296        C303   1.270       .  A
O296       Al304   1.949       .  S
O297        C306   1.270       .  A
O297       Al304   1.957       .  S
O298       Al304   1.930       .  S
O299        C306   1.253       .  A
O300       Al304   1.788       .  S
O301        C302   1.259       .  A
C302        C813   1.425       .  S
C303        C808   1.445       .  S
C306        C837   1.448       .  S
C307        O308   1.259       .  A
C307        C812   1.453       .  S
O309        C324   1.258       .  A
O309       Al317   1.885       .  S
C310        O320   1.264       .  A
C310        O311   1.260       .  A
C310        C801   1.456       .  S
O311       Al313   1.917       .  S
O312        C314   1.254       .  A
O312       Al313   1.882       .  S
Al313       O321   1.869       .  S
Al313       O323   1.936       .  S
Al313       O322   1.783       .  S
C314        O327   1.257       .  A
C314        C816   1.423       .  S
O315        C325   1.258       .  A
O315       Al317   1.873       .  S
O316        C329   1.264       .  A
O316       Al326   1.938       .  S
Al317       O330   1.904       .  S
Al317       O327   1.915       .  S
Al317       O322   1.790       .  S
O318        C325   1.270       .  A
O318       Al326   1.947       .  S
O319        C328   1.267       .  A
O319       Al326   1.943       .  S
O320       Al326   1.930       .  S
O321        C328   1.254       .  A
O322       Al326   1.786       .  S
O323        C324   1.266       .  A
C324        C793   1.432       .  S
C325        C785   1.435       .  S
C328        C797   1.436       .  S
C329        O330   1.256       .  A
C329        C789   1.452       .  S
O331        C346   1.258       .  A
O331       Al339   1.885       .  S
C332        O342   1.264       .  A
C332        O333   1.260       .  A
C332        C781   1.456       .  S
O333       Al335   1.917       .  S
O334        C336   1.254       .  A
O334       Al335   1.882       .  S
Al335       O343   1.869       .  S
Al335       O345   1.936       .  S
Al335       O344   1.783       .  S
C336        O349   1.257       .  A
C336        C896   1.422       .  S
O337        C347   1.258       .  A
O337       Al339   1.872       .  S
O338        C351   1.264       .  A
O338       Al348   1.938       .  S
Al339       O352   1.903       .  S
Al339       O349   1.915       .  S
Al339       O344   1.790       .  S
O340        C347   1.270       .  A
O340       Al348   1.947       .  S
O341        C350   1.267       .  A
O341       Al348   1.943       .  S
O342       Al348   1.930       .  S
O343        C350   1.255       .  A
O344       Al348   1.786       .  S
O345        C346   1.266       .  A
C346        C777   1.432       .  S
C347        C769   1.435       .  S
C350        C800   1.437       .  S
C351        O352   1.255       .  A
C351        C773   1.452   1_655  S
O353        C368   1.258       .  A
O353       Al361   1.885       .  S
C354        O364   1.264       .  A
C354        O355   1.260       .  A
C354        C936   1.456       .  S
O355       Al357   1.917       .  S
O356        C358   1.254       .  A
O356       Al357   1.882       .  S
Al357       O365   1.869       .  S
Al357       O367   1.936       .  S
Al357       O366   1.783       .  S
C358        O371   1.257       .  A
C358        C764   1.423       .  S
O359        C369   1.258       .  A
O359       Al361   1.872       .  S
O360        C373   1.264       .  A
O360       Al370   1.938       .  S
Al361       O374   1.904       .  S
Al361       O371   1.914       .  S
Al361       O366   1.790       .  S
O362        C369   1.270       .  A
O362       Al370   1.947       .  S
O363        C372   1.267       .  A
O363       Al370   1.942       .  S
O364       Al370   1.930       .  S
O365        C372   1.254       .  A
O366       Al370   1.786       .  S
O367        C368   1.266       .  A
C368        C780   1.432   1_545  S
C369       C1048   1.434       .  S
C372        C768   1.436       .  S
C373        O374   1.255       .  A
C373        C892   1.452       .  S
O375        C390   1.258       .  A
O375       Al383   1.885       .  S
C376        O386   1.264       .  A
C376        O377   1.260       .  A
C376       C1016   1.456       .  S
O377       Al379   1.917       .  S
O378        C380   1.254       .  A
O378       Al379   1.882       .  S
Al379       O387   1.869       .  S
Al379       O389   1.936       .  S
Al379       O388   1.783       .  S
C380        O393   1.257       .  A
C380        C757   1.423       .  S
O381        C391   1.258       .  A
O381       Al383   1.873       .  S
O382        C395   1.264       .  A
O382       Al392   1.938       .  S
Al383       O396   1.904       .  S
Al383       O393   1.915       .  S
Al383       O388   1.790       .  S
O384        C391   1.270       .  A
O384       Al392   1.948       .  S
O385        C394   1.267       .  A
O385       Al392   1.943       .  S
O386       Al392   1.930       .  S
O387        C394   1.255       .  A
O388       Al392   1.786       .  S
O389        C390   1.266       .  A
C390        C796   1.432   1_545  S
C391       C1065   1.435       .  S
C394        C765   1.437       .  S
C395        O396   1.256       .  A
C395        C809   1.452   1_655  S
O397        C412   1.258       .  A
O397       Al405   1.889       .  S
C398        O408   1.263       .  A
C398        O399   1.257       .  A
C398       C1060   1.454       .  S
O399       Al401   1.909       .  S
O400        C402   1.257       .  A
O400       Al401   1.891   1_545  S
Al401       O409   1.871       .  S
Al401       O411   1.907       .  S
Al401       O410   1.791       .  S
C402        O415   1.263       .  A
C402        C957   1.439       .  S
O403        C413   1.260       .  A
O403       Al405   1.888       .  S
O404        C417   1.261       .  A
O404       Al414   1.922       .  S
Al405       O418   1.921       .  S
Al405       O415   1.933   1_565  S
Al405       O410   1.788       .  S
O406        C413   1.270       .  A
O406       Al414   1.949       .  S
O407        C416   1.269       .  A
O407       Al414   1.957       .  S
O408       Al414   1.930       .  S
O409        C416   1.253       .  A
O410       Al414   1.788       .  S
O411        C412   1.259       .  A
C412        C752   1.425       .  S
C413        C825   1.445       .  S
C416        C756   1.447       .  S
C417        O418   1.259       .  A
C417        C853   1.453       .  S
O419        C434   1.258       .  A
O419       Al427   1.889       .  S
C420        O430   1.263       .  A
C420        O421   1.257       .  A
C420        C969   1.455       .  S
O421       Al423   1.909       .  S
O422        C424   1.257       .  A
O422       Al423   1.891   1_545  S
Al423       O431   1.871       .  S
Al423       O433   1.907       .  S
Al423       O432   1.791       .  S
C424        O437   1.263       .  A
C424        C940   1.438       .  S
O425        C435   1.260       .  A
O425       Al427   1.888       .  S
O426        C439   1.261       .  A
O426       Al436   1.922       .  S
Al427       O440   1.921       .  S
Al427       O437   1.932   1_565  S
Al427       O432   1.788       .  S
O428        C435   1.270       .  A
O428       Al436   1.949       .  S
O429        C438   1.269       .  A
O429       Al436   1.957       .  S
O430       Al436   1.930       .  S
O431        C438   1.253       .  A
O432       Al436   1.788       .  S
O433        C434   1.259       .  A
C434        C761   1.425       .  S
C435        C805   1.445       .  S
C438        C753   1.448       .  S
C439        O440   1.259       .  A
C439        C776   1.453       .  S
O441        C456   1.258       .  A
O441       Al449   1.889   1_554  S
C442        O452   1.263       .  A
C442        O443   1.257       .  A
C442       C1080   1.454       .  S
O443       Al445   1.909       .  S
O444        C446   1.257   1_554  A
O444       Al445   1.891   1_545  S
Al445       O453   1.871       .  S
Al445       O455   1.907       .  S
Al445       O454   1.791       .  S
C446        O459   1.263       .  A
C446       C1037   1.438       .  S
O447        C457   1.260       .  A
O447       Al449   1.888       .  S
O448        C461   1.261   1_554  A
O448       Al458   1.922       .  S
Al449       O462   1.921       .  S
Al449       O459   1.933   1_565  S
Al449       O454   1.788   1_556  S
O450        C457   1.270       .  A
O450       Al458   1.949   1_556  S
O451        C460   1.270       .  A
O451       Al458   1.958       .  S
O452       Al458   1.930       .  S
O453        C460   1.253       .  A
O454       Al458   1.788       .  S
O455        C456   1.259       .  A
C456        C741   1.424       .  S
C457        C905   1.445       .  S
C460        C748   1.448       .  S
C461        O462   1.259       .  A
C461        C877   1.453       .  S
O463        C478   1.258       .  A
O463       Al471   1.889       .  S
C464        O474   1.263       .  A
C464        O465   1.257       .  A
C464        C997   1.454       .  S
O465       Al467   1.909       .  S
O466        C468   1.257       .  A
O466       Al467   1.891   1_545  S
Al467       O475   1.871       .  S
Al467       O477   1.907       .  S
Al467       O476   1.791       .  S
C468        O481   1.263       .  A
C468       C1020   1.439       .  S
O469        C479   1.260       .  A
O469       Al471   1.888       .  S
O470        C483   1.261       .  A
O470       Al480   1.922       .  S
Al471       O484   1.922       .  S
Al471       O481   1.933   1_565  S
Al471       O476   1.788       .  S
O472        C479   1.270       .  A
O472       Al480   1.950       .  S
O473        C482   1.270       .  A
O473       Al480   1.958       .  S
O474       Al480   1.930       .  S
O475        C482   1.253       .  A
O476       Al480   1.788       .  S
O477        C478   1.259       .  A
C478        C760   1.424       .  S
C479        C888   1.445       .  S
C482        C745   1.448       .  S
C483        O484   1.259       .  A
C483        C792   1.454       .  S
O485        C500   1.258       .  A
O485       Al493   1.885   1_556  S
C486        O496   1.264       .  A
C486        O487   1.260   1_554  A
C486       C1036   1.456       .  S
O487       Al489   1.917       .  S
O488        C490   1.254       .  A
O488       Al489   1.882   1_554  S
Al489       O497   1.869       .  S
Al489       O499   1.935       .  S
Al489       O498   1.783   1_556  S
C490        O503   1.257       .  A
C490        C744   1.423       .  S
O491        C501   1.258       .  A
O491       Al493   1.873       .  S
O492        C505   1.265   1_556  A
O492       Al502   1.938   1_556  S
Al493       O506   1.904       .  S
Al493       O503   1.915       .  S
Al493       O498   1.790       .  S
O494        C501   1.270       .  A
O494       Al502   1.947       .  S
O495        C504   1.267       .  A
O495       Al502   1.943   1_556  S
O496       Al502   1.930       .  S
O497        C504   1.254       .  A
O498       Al502   1.786       .  S
O499        C500   1.266       .  A
C500        C881   1.432   1_545  S
C501        C988   1.435       .  S
C504        C737   1.436       .  S
C505        O506   1.256       .  A
C505        C841   1.452   1_554  S
O507        C522   1.258       .  A
O507       Al515   1.885       .  S
C508        O518   1.264       .  A
C508        O509   1.260       .  A
C508        C953   1.456       .  S
O509       Al511   1.917       .  S
O510        C512   1.254       .  A
O510       Al511   1.882       .  S
Al511       O519   1.869       .  S
Al511       O521   1.936       .  S
Al511       O520   1.783       .  S
C512        O525   1.257       .  A
C512        C749   1.423       .  S
O513        C523   1.258       .  A
O513       Al515   1.873       .  S
O514        C527   1.264       .  A
O514       Al524   1.939       .  S
Al515       O528   1.904       .  S
Al515       O525   1.915       .  S
Al515       O520   1.790       .  S
O516        C523   1.270       .  A
O516       Al524   1.948       .  S
O517        C526   1.267       .  A
O517       Al524   1.943       .  S
O518       Al524   1.930       .  S
O519        C526   1.254       .  A
O520       Al524   1.786       .  S
O521        C522   1.266       .  A
C522        C860   1.432   1_545  S
C523        C968   1.435       .  S
C526        C740   1.437       .  S
C527        O528   1.256       .  A
C527        C925   1.452       .  S
O529        C544   1.258       .  A
O529       Al537   1.889   1_554  S
C530        O540   1.263       .  A
C530        O531   1.257       .  A
C530        C865   1.454       .  S
O531       Al533   1.909       .  S
O532        C534   1.257   1_554  A
O532       Al533   1.891       .  S
Al533       O541   1.871       .  S
Al533       O543   1.907       .  S
Al533       O542   1.791       .  S
C534        O547   1.263       .  A
C534        C833   1.438       .  S
O535        C545   1.260       .  A
O535       Al537   1.888       .  S
O536        C549   1.261   1_554  A
O536       Al546   1.922       .  S
Al537       O550   1.921       .  S
Al537       O547   1.933       .  S
Al537       O542   1.788   1_556  S
O538        C545   1.270       .  A
O538       Al546   1.950   1_556  S
O539        C548   1.270       .  A
O539       Al546   1.958       .  S
O540       Al546   1.930       .  S
O541        C548   1.253       .  A
O542       Al546   1.788       .  S
O543        C544   1.259       .  A
C544        C729   1.424       .  S
C545        C945   1.446       .  S
C548        C733   1.448       .  S
C549        O550   1.259       .  A
C549       C1081   1.454       .  S
O551        C566   1.258       .  A
O551       Al559   1.889       .  S
C552        O562   1.263       .  A
C552        O553   1.258       .  A
C552        C804   1.454       .  S
O553       Al555   1.909       .  S
O554        C556   1.257       .  A
O554       Al555   1.891       .  S
Al555       O563   1.871       .  S
Al555       O565   1.907       .  S
Al555       O564   1.791       .  S
C556        O569   1.263       .  A
C556        C821   1.438       .  S
O557        C567   1.259       .  A
O557       Al559   1.888       .  S
O558        C571   1.261       .  A
O558       Al568   1.922       .  S
Al559       O572   1.921       .  S
Al559       O569   1.932       .  S
Al559       O564   1.788       .  S
O560        C567   1.270       .  A
O560       Al568   1.950       .  S
O561        C570   1.270       .  A
O561       Al568   1.958       .  S
O562       Al568   1.930       .  S
O563        C570   1.253       .  A
O564       Al568   1.788       .  S
O565        C566   1.259       .  A
C566        C725   1.425       .  S
C567        C929   1.445       .  S
C570        C736   1.448       .  S
C571        O572   1.259       .  A
C571        C992   1.453       .  S
O573        C588   1.258       .  A
O573       Al581   1.885   1_556  S
C574        O584   1.264       .  A
C574        O575   1.260   1_554  A
C574        C829   1.456       .  S
O575       Al577   1.917       .  S
O576        C578   1.254       .  A
O576       Al577   1.882   1_554  S
Al577       O585   1.869       .  S
Al577       O587   1.936       .  S
Al577       O586   1.783   1_556  S
C578        O591   1.257       .  A
C578        C732   1.423       .  S
O579        C589   1.258       .  A
O579       Al581   1.873       .  S
O580        C593   1.264   1_556  A
O580       Al590   1.938   1_556  S
Al581       O594   1.904       .  S
Al581       O591   1.915       .  S
Al581       O586   1.790       .  S
O582        C589   1.270       .  A
O582       Al590   1.947       .  S
O583        C592   1.267       .  A
O583       Al590   1.943   1_556  S
O584       Al590   1.930       .  S
O585        C592   1.254       .  A
O586       Al590   1.786       .  S
O587        C588   1.266       .  A
C588       C1085   1.432       .  S
C589        C788   1.435       .  S
C592        C724   1.437       .  S
C593        O594   1.256       .  A
C593       C1044   1.452   1_554  S
O595        C610   1.258       .  A
O595       Al603   1.885       .  S
C596        O606   1.264       .  A
C596        O597   1.260       .  A
C596        C912   1.456       .  S
O597       Al599   1.917       .  S
O598        C600   1.254       .  A
O598       Al599   1.882       .  S
Al599       O607   1.869       .  S
Al599       O609   1.935       .  S
Al599       O608   1.783       .  S
C600        O613   1.257       .  A
C600        C720   1.423       .  S
O601        C611   1.258       .  A
O601       Al603   1.873       .  S
O602        C615   1.264       .  A
O602       Al612   1.938       .  S
Al603       O616   1.904       .  S
Al603       O613   1.915       .  S
Al603       O608   1.790       .  S
O604        C611   1.270       .  A
O604       Al612   1.947       .  S
O605        C614   1.267       .  A
O605       Al612   1.943       .  S
O606       Al612   1.930       .  S
O607        C614   1.254       .  A
O608       Al612   1.786       .  S
O609        C610   1.266       .  A
C610       C1053   1.432       .  S
C611        C772   1.435       .  S
C614        C721   1.437       .  S
C615        O616   1.256       .  A
C615        C949   1.452   1_655  S
O617        C632   1.257       .  A
O617       Al625   1.889       .  S
C618        O628   1.263       .  A
C618        O619   1.257       .  A
C618        C852   1.454       .  S
O619       Al621   1.909       .  S
O620        C622   1.257       .  A
O620       Al621   1.891       .  S
Al621       O629   1.871       .  S
Al621       O631   1.907       .  S
Al621       O630   1.791       .  S
C622        O635   1.263       .  A
C622        C913   1.438       .  S
O623        C633   1.260       .  A
O623       Al625   1.888       .  S
O624        C637   1.261       .  A
O624       Al634   1.922       .  S
Al625       O638   1.921       .  S
Al625       O635   1.932       .  S
Al625       O630   1.788       .  S
O626        C633   1.270       .  A
O626       Al634   1.949       .  S
O627        C636   1.270       .  A
O627       Al634   1.957       .  S
O628       Al634   1.930       .  S
O629        C636   1.253       .  A
O630       Al634   1.788       .  S
O631        C632   1.259       .  A
C632        C717   1.425       .  S
C633       C1025   1.445       .  S
C636        C713   1.448       .  S
C637        O638   1.259       .  A
C637       C1052   1.453       .  S
O639        C654   1.257       .  A
O639       Al647   1.889       .  S
C640        O650   1.263       .  A
C640        O641   1.257       .  A
C640        C784   1.454       .  S
O641       Al643   1.909       .  S
O642        C644   1.257       .  A
O642       Al643   1.891       .  S
Al643       O651   1.871       .  S
Al643       O653   1.907       .  S
Al643       O652   1.791       .  S
C644        O657   1.263       .  A
C644        C901   1.438       .  S
O645        C655   1.260       .  A
O645       Al647   1.888       .  S
O646        C659   1.261       .  A
O646       Al656   1.922       .  S
Al647       O660   1.921       .  S
Al647       O657   1.932       .  S
Al647       O652   1.788       .  S
O648        C655   1.270       .  A
O648       Al656   1.949       .  S
O649        C658   1.269       .  A
O649       Al656   1.957       .  S
O650       Al656   1.930       .  S
O651        C658   1.253       .  A
O652       Al656   1.788       .  S
O653        C654   1.259       .  A
C654        C709   1.425       .  S
C655       C1008   1.445       .  S
C658        C716   1.447       .  S
C659        O660   1.259       .  A
C659        C976   1.453       .  S
O661        C676   1.258       .  A
O661       Al669   1.885       .  S
C662        O672   1.264       .  A
C662        O663   1.260       .  A
C662        C897   1.456       .  S
O663       Al665   1.917       .  S
O664        C666   1.254       .  A
O664       Al665   1.882       .  S
Al665       O673   1.869       .  S
Al665       O675   1.936       .  S
Al665       O674   1.783       .  S
C666        O679   1.257       .  A
C666        C712   1.423       .  S
O667        C677   1.258       .  A
O667       Al669   1.873       .  S
O668        C681   1.264       .  A
O668       Al678   1.938       .  S
Al669       O682   1.904       .  S
Al669       O679   1.915       .  S
Al669       O674   1.790       .  S
O670        C677   1.270       .  A
O670       Al678   1.947       .  S
O671        C680   1.267       .  A
O671       Al678   1.943       .  S
O672       Al678   1.930       .  S
O673        C680   1.254       .  A
O674       Al678   1.786       .  S
O675        C676   1.266       .  A
C676        C977   1.432       .  S
C677        C848   1.435       .  S
C680        C705   1.437       .  S
C681        O682   1.256       .  A
C681        C944   1.452       .  S
O683        C698   1.258       .  A
O683       Al691   1.885       .  S
C684        O694   1.264       .  A
C684        O685   1.260       .  A
C684        C820   1.456       .  S
O685       Al687   1.917       .  S
O686        C688   1.254       .  A
O686       Al687   1.882       .  S
Al687       O695   1.869       .  S
Al687       O697   1.936       .  S
Al687       O696   1.783       .  S
C688        O701   1.257       .  A
C688        C728   1.423       .  S
O689        C699   1.258       .  A
O689       Al691   1.873       .  S
O690        C703   1.264       .  A
O690       Al700   1.938       .  S
Al691       O704   1.904       .  S
Al691       O701   1.915       .  S
Al691       O696   1.790       .  S
O692        C699   1.270       .  A
O692       Al700   1.947       .  S
O693        C702   1.267       .  A
O693       Al700   1.943       .  S
O694       Al700   1.930       .  S
O695        C702   1.254       .  A
O696       Al700   1.786       .  S
O697        C698   1.266       .  A
C698        C993   1.432       .  S
C699        C864   1.435       .  S
C702        C708   1.437       .  S
C703        O704   1.256       .  A
C703       C1012   1.452       .  S
C705        C706   1.207       .  T
C706        C707   1.415       .  S
C707        C708   1.207       .  T
C709        C710   1.199       .  T
C710        C711   1.401       .  S
C711        C712   1.198       .  T
C713        C714   1.214       .  T
C714        C715   1.426       .  S
C715        C716   1.214       .  T
C717        C718   1.199       .  T
C718        C719   1.400       .  S
C719        C720   1.198       .  T
C721        C722   1.207       .  T
C722        C723   1.415       .  S
C723        C724   1.207       .  T
C725        C726   1.199       .  T
C726        C727   1.400       .  S
C727        C728   1.198       .  T
C729        C730   1.199       .  T
C730        C731   1.400   1_455  S
C731        C732   1.198       .  T
C733        C734   1.214       .  T
C734        C735   1.427       .  S
C735        C736   1.214       .  T
C737        C738   1.207       .  T
C738        C739   1.415       .  S
C739        C740   1.207       .  T
C741        C742   1.199       .  T
C742        C743   1.400   1_565  S
C743        C744   1.198       .  T
C745        C746   1.214       .  T
C746        C747   1.427       .  S
C747        C748   1.214       .  T
C749        C750   1.198       .  T
C750        C751   1.400   1_545  S
C751        C752   1.199       .  T
C753        C754   1.214       .  T
C754        C755   1.426       .  S
C755        C756   1.214       .  T
C757        C758   1.198       .  T
C758        C759   1.400   1_545  S
C759        C760   1.199       .  T
C761        C762   1.199       .  T
C762        C763   1.400   1_465  S
C763        C764   1.198       .  T
C765        C766   1.207       .  T
C766        C767   1.415       .  S
C767        C768   1.207       .  T
C769        C770   1.206       .  T
C770        C771   1.413       .  S
C771        C772   1.206       .  T
C773        C774   1.216       .  T
C774        C775   1.430       .  S
C775        C776   1.217       .  T
C777        C778   1.204       .  T
C778        C779   1.409       .  S
C779        C780   1.204       .  T
C781        C782   1.218       .  T
C782        C783   1.432       .  S
C783        C784   1.218       .  T
C785        C786   1.206       .  T
C786        C787   1.413       .  S
C787        C788   1.206       .  T
C789        C790   1.216       .  T
C790        C791   1.430       .  S
C791        C792   1.217       .  T
C793        C794   1.204       .  T
C794        C795   1.409       .  S
C795        C796   1.204       .  T
C797        C798   1.207       .  T
C798        C799   1.415       .  S
C799        C800   1.207       .  T
C801        C802   1.218       .  T
C802        C803   1.432       .  S
C803        C804   1.218   1_655  T
C805        C806   1.212       .  T
C806        C807   1.422       .  S
C807        C808   1.212       .  T
C809        C810   1.216       .  T
C810        C811   1.430       .  S
C811        C812   1.217   1_545  T
C813        C814   1.199       .  T
C814        C815   1.401   1_455  S
C815        C816   1.198       .  T
C817        C818   1.218       .  T
C818        C819   1.432       .  S
C819        C820   1.218       .  T
C821        C822   1.207       .  T
C822        C823   1.415       .  S
C823        C824   1.207       .  T
C825        C826   1.212       .  T
C826        C827   1.422       .  S
C827        C828   1.212       .  T
C829        C830   1.218       .  T
C830        C831   1.432       .  S
C831        C832   1.218   1_655  T
C833        C834   1.208       .  T
C834        C835   1.415       .  S
C835        C836   1.208       .  T
C837        C838   1.214       .  T
C838        C839   1.426       .  S
C839        C840   1.214       .  T
C841        C842   1.216       .  T
C842        C843   1.430       .  S
C843        C844   1.217   1_545  T
C845        C846   1.206       .  T
C846        C847   1.413       .  S
C847        C848   1.206       .  T
C849        C850   1.218       .  T
C850        C851   1.432       .  S
C851        C852   1.218       .  T
C853        C854   1.217       .  T
C854        C855   1.430       .  S
C855        C856   1.216       .  T
C857        C858   1.204       .  T
C858        C859   1.409       .  S
C859        C860   1.204       .  T
C861        C862   1.206       .  T
C862        C863   1.413       .  S
C863        C864   1.206       .  T
C865        C866   1.218       .  T
C866        C867   1.432       .  S
C867        C868   1.218       .  T
C869        C870   1.199       .  T
C870        C871   1.400       .  S
C871        C872   1.198       .  T
C873        C874   1.208       .  T
C874        C875   1.415       .  S
C875        C876   1.208       .  T
C877        C878   1.217       .  T
C878        C879   1.430       .  S
C879        C880   1.216       .  T
C881        C882   1.204       .  T
C882        C883   1.409       .  S
C883        C884   1.204       .  T
C885        C886   1.212       .  T
C886        C887   1.423       .  S
C887        C888   1.212       .  T
C889        C890   1.217   1_565  T
C890        C891   1.430       .  S
C891        C892   1.216       .  T
C893        C894   1.199       .  T
C894        C895   1.400       .  S
C895        C896   1.198       .  T
C897        C898   1.218       .  T
C898        C899   1.432       .  S
C899        C900   1.218       .  T
C901        C902   1.208       .  T
C902        C903   1.415       .  S
C903        C904   1.208       .  T
C905        C906   1.212       .  T
C906        C907   1.422       .  S
C907        C908   1.212       .  T
C909        C910   1.218       .  T
C910        C911   1.432       .  S
C911        C912   1.218       .  T
C913        C914   1.208       .  T
C914        C915   1.415       .  S
C915        C916   1.208       .  T
C917        C918   1.198       .  T
C918        C919   1.400       .  S
C919        C920   1.199       .  T
C921        C922   1.214       .  T
C922        C923   1.426       .  S
C923        C924   1.214       .  T
C925        C926   1.217       .  T
C926        C927   1.430       .  S
C927        C928   1.217   1_545  T
C929        C930   1.212       .  T
C930        C931   1.423       .  S
C931        C932   1.212       .  T
C933        C934   1.218   1_455  T
C934        C935   1.432       .  S
C935        C936   1.218       .  T
C937        C938   1.208       .  T
C938        C939   1.415       .  S
C939        C940   1.208       .  T
C941        C942   1.217       .  T
C942        C943   1.430       .  S
C943        C944   1.216       .  T
C945        C946   1.212       .  T
C946        C947   1.423       .  S
C947        C948   1.212       .  T
C949        C950   1.216       .  T
C950        C951   1.430       .  S
C951        C952   1.217       .  T
C953        C954   1.218       .  T
C954        C955   1.432       .  S
C955        C956   1.218       .  T
C957        C958   1.208       .  T
C958        C959   1.415       .  S
C959        C960   1.208       .  T
C961        C962   1.214       .  T
C962        C963   1.427       .  S
C963        C964   1.214       .  T
C965        C966   1.206       .  T
C966        C967   1.413       .  S
C967        C968   1.206       .  T
C969        C970   1.218   1_565  T
C970        C971   1.432       .  S
C971        C972   1.218       .  T
C973        C974   1.216       .  T
C974        C975   1.430       .  S
C975        C976   1.217       .  T
C977        C978   1.204       .  T
C978        C979   1.409       .  S
C979        C980   1.204       .  T
C981        C982   1.199       .  T
C982        C983   1.400       .  S
C983        C984   1.198       .  T
C985        C986   1.206       .  T
C986        C987   1.413       .  S
C987        C988   1.206       .  T
C989        C990   1.216       .  T
C990        C991   1.430       .  S
C991        C992   1.217       .  T
C993        C994   1.204       .  T
C994        C995   1.409       .  S
C995        C996   1.204       .  T
C997        C998   1.218   1_565  T
C998        C999   1.432       .  S
C999       C1000   1.218       .  T
C1001      C1002   1.208       .  T
C1002      C1003   1.416       .  S
C1003      C1004   1.208       .  T
C1005      C1006   1.212       .  T
C1006      C1007   1.422       .  S
C1007      C1008   1.212       .  T
C1009      C1010   1.217       .  T
C1010      C1011   1.430       .  S
C1011      C1012   1.216       .  T
C1013      C1014   1.218       .  T
C1014      C1015   1.432       .  S
C1015      C1016   1.218       .  T
C1017      C1018   1.208       .  T
C1018      C1019   1.415       .  S
C1019      C1020   1.208       .  T
C1021      C1022   1.199       .  T
C1022      C1023   1.400       .  S
C1023      C1024   1.198       .  T
C1025      C1026   1.212       .  T
C1026      C1027   1.423       .  S
C1027      C1028   1.212       .  T
C1029      C1030   1.214       .  T
C1030      C1031   1.426       .  S
C1031      C1032   1.214       .  T
C1033      C1034   1.218       .  T
C1034      C1035   1.432       .  S
C1035      C1036   1.218       .  T
C1037      C1038   1.208       .  T
C1038      C1039   1.415       .  S
C1039      C1040   1.208       .  T
C1041      C1042   1.217       .  T
C1042      C1043   1.430       .  S
C1043      C1044   1.216       .  T
C1045      C1046   1.206       .  T
C1046      C1047   1.412       .  S
C1047      C1048   1.206       .  T
C1049      C1050   1.216       .  T
C1050      C1051   1.430       .  S
C1051      C1052   1.217       .  T
C1053      C1054   1.204       .  T
C1054      C1055   1.409       .  S
C1055      C1056   1.204       .  T
C1057      C1058   1.218       .  T
C1058      C1059   1.432       .  S
C1059      C1060   1.218   1_645  T
C1061      C1062   1.199       .  T
C1062      C1063   1.400   1_455  S
C1063      C1064   1.198       .  T
C1065      C1066   1.206       .  T
C1066      C1067   1.413       .  S
C1067      C1068   1.206       .  T
C1069      C1070   1.198       .  T
C1070      C1071   1.401       .  S
C1071      C1072   1.199       .  T
C1073      C1074   1.207       .  T
C1074      C1075   1.415       .  S
C1075      C1076   1.207       .  T
C1077      C1078   1.218       .  T
C1078      C1079   1.432       .  S
C1079      C1080   1.218   1_545  T
C1081      C1082   1.217       .  T
C1082      C1083   1.430       .  S
C1083      C1084   1.217       .  T
C1085      C1086   1.204       .  T
C1086      C1087   1.409       .  S
C1087      C1088   1.204       .  T
