geometry optimzed in LAMMPS
_audit_creation_date              2020-12-01 
_audit_creation_method            'lammps2cif' 
_symmetry_space_group_name_H-M    'P1' 
_symmetry_Int_Tables_number       1 
_symmetry_cell_setting            triclinic 
loop_ 
_symmetry_equiv_pos_as_xyz 
  x,y,z 
_cell_length_a                    43.61076018 
_cell_length_b                    51.22357949408406 
_cell_length_c                    30.085886684885672 
_cell_angle_alpha                 89.82084982378812 
_cell_angle_beta                  89.94688382811256 
_cell_angle_gamma                 89.9456049965882 
loop_ 
_atom_site_label 
_atom_site_type_symbol 
_atom_site_fract_x 
_atom_site_fract_y 
_atom_site_fract_z 
_atom_site_charge 
Zn1        Zn  0.33489984  0.52905589  0.54555970     1.49700
Zn2        Zn  0.35893017  0.51726491  0.64157289     1.49400
Zn3        Zn  0.32027364  0.47523128  0.58798670     1.49100
Zn4        Zn  0.39021194  0.48908603  0.56277018     1.49500
O5          O  0.35124734  0.50231766  0.58428042    -1.84300
O6          O  0.33826741  0.56471502  0.57202832    -0.74900
O7          O  0.32459425  0.50858309  0.68273943    -0.74700
O8          O  0.28963860  0.47883037  0.53658242    -0.74200
O9          O  0.35989747  0.55611624  0.63717270    -0.74900
O10         O  0.29193650  0.52153910  0.52533011    -0.74500
O11         O  0.29624392  0.48011262  0.64523252    -0.75100
O12         O  0.38872191  0.44981671  0.56476180    -0.74500
O13         O  0.39953130  0.50586287  0.66660095    -0.75200
O14         O  0.34144635  0.43967004  0.58730564    -0.74600
O15         O  0.42601435  0.49882231  0.60443970    -0.75100
O16         O  0.39534536  0.49972576  0.49793081    -0.75000
O17         O  0.35768691  0.52849507  0.48877040    -0.74800
C18         C  0.35008428  0.57231438  0.60838675     0.77000
C19         C  0.30097398  0.49414017  0.67952739     0.77500
C20         C  0.27953936  0.49953738  0.51773874     0.76500
C21         C  0.36865464  0.43302831  0.57621975     0.76800
C22         C  0.42480646  0.50161880  0.64666727     0.78000
C23         C  0.37983275  0.51521506  0.47328468     0.77000
Zn24       Zn  0.38504261  0.76793836  0.69088141     1.49700
Zn25       Zn  0.31430682  0.77870055  0.66364666     1.49400
Zn26       Zn  0.35637121  0.73615486  0.61514145     1.49100
Zn27       Zn  0.33069218  0.72642435  0.70959042     1.49500
O28         O  0.34684349  0.75286378  0.67019232    -1.84300
O29         O  0.38057296  0.80673044  0.68652088    -0.74900
O30         O  0.29190774  0.77075654  0.60568072    -0.74700
O31         O  0.39631404  0.74715375  0.58902422    -0.74200
O32         O  0.33325078  0.81517992  0.66346448    -0.74900
O33         O  0.42190558  0.75920752  0.64940120    -0.74500
O34         O  0.32215449  0.74119815  0.57337145    -0.75100
O35         O  0.33515473  0.69005725  0.68567158    -0.74500
O36         O  0.28278433  0.77552615  0.71454963    -0.75200
O37         O  0.35953721  0.69788239  0.62252568    -0.74600
O38         O  0.28725748  0.73316968  0.72874496    -0.75100
O39         O  0.35319870  0.72900949  0.76602643    -0.75000
O40         O  0.39031596  0.75847601  0.75664857    -0.74800
C41         C  0.36001760  0.82296308  0.67440388     0.77000
C42         C  0.29774689  0.75470041  0.57433810     0.77500
C43         C  0.42129129  0.75337293  0.60800241     0.76500
C44         C  0.34872969  0.68199085  0.65090467     0.76800
C45         C  0.27352548  0.75485915  0.73431902     0.78000
C46         C  0.37478731  0.74294991  0.78130556     0.77000
Zn47       Zn  0.40814395  0.47094660  0.12117718     1.49700
Zn48       Zn  0.38279608  0.51450627  0.18653813     1.49400
Zn49       Zn  0.42780009  0.46860305  0.22136454     1.49100
Zn50       Zn  0.45391858  0.51309816  0.16424128     1.49500
O51         O  0.41776150  0.49183522  0.17278522    -1.84300
O52         O  0.36726536  0.48195689  0.09610547    -0.74900
O53         O  0.37669374  0.51503386  0.25406793    -0.74700
O54         O  0.41268113  0.43197203  0.21066122    -0.74200
O55         O  0.34495867  0.50532512  0.14890321    -0.74900
O56         O  0.40298344  0.43289327  0.13806063    -0.74500
O57         O  0.40761637  0.48251808  0.27429423    -0.75100
O58         O  0.48499694  0.50872120  0.21404801    -0.74500
O59         O  0.39271794  0.55139169  0.16791412    -0.75200
O60         O  0.47239252  0.46996908  0.24085498    -0.74600
O61         O  0.44300941  0.55079542  0.15692208    -0.75100
O62         O  0.47278072  0.50375850  0.10642222    -0.75000
O63         O  0.44087894  0.47558819  0.07410223    -0.74800
C64         C  0.34385399  0.49404286  0.11107552     0.77000
C65         C  0.38965049  0.50113174  0.28403970     0.77500
C66         C  0.40383372  0.42080752  0.17514352     0.76500
C67         C  0.49028922  0.48961819  0.24027620     0.76800
C68         C  0.41757732  0.56293497  0.15766241     0.78000
C69         C  0.46503104  0.48961673  0.07363661     0.77000
Zn70       Zn  0.40776467  0.72596513  0.13864558     1.49700
Zn71       Zn  0.37692033  0.75823664  0.06335393     1.49400
Zn72       Zn  0.44754773  0.76926428  0.08728154     1.49100
Zn73       Zn  0.42954085  0.71640213  0.04070436     1.49500
O74         O  0.41550658  0.74272844  0.08237137    -1.84300
O75         O  0.36631937  0.73420743  0.16302475    -0.74900
O76         O  0.37957731  0.79703963  0.06941816    -0.74700
O77         O  0.46950836  0.76377039  0.14619792    -0.74200
O78         O  0.34071464  0.74786087  0.10350513    -0.74900
O79         O  0.44004168  0.73526208  0.18200629    -0.74500
O80         O  0.42810296  0.80585032  0.08505982    -0.75100
O81         O  0.47276339  0.72320874  0.02033510    -0.74500
O82         O  0.37115097  0.75109949  0.99761714    -0.75200
O83         O  0.48036656  0.76461310  0.03867791    -0.74600
O84         O  0.40609422  0.72025076  0.98457992    -0.75100
O85         O  0.42566244  0.67953714  0.06483802    -0.75000
O86         O  0.40945762  0.68728917  0.13325043    -0.74800
C87         C  0.34138101  0.74101520  0.14441298     0.77000
C88         C  0.40061165  0.81347903  0.07794600     0.77500
C89         C  0.46372488  0.74966507  0.18024038     0.76500
C90         C  0.48872739  0.74397382  0.01810272     0.76800
C91         C  0.38512441  0.73563178  0.97126184     0.78000
C92         C  0.41722434  0.67137473  0.10294869     0.77000
Zn93       Zn  0.10791256  0.48002385  0.39334827     1.49700
Zn94       Zn  0.14001127  0.51040228  0.31640615     1.49400
Zn95       Zn  0.08677921  0.46898815  0.29570778     1.49100
Zn96       Zn  0.06943580  0.52231537  0.33900777     1.49500
O97         O  0.10127231  0.49575130  0.33606234    -1.84300
O98         O  0.14924363  0.48776886  0.41805216    -0.74900
O99         O  0.14509724  0.50181144  0.25032315    -0.74700
O100        O  0.08891501  0.43306955  0.32175931    -0.74200
O101        O  0.17557444  0.49968012  0.35800551    -0.74900
O102        O  0.10455143  0.44142096  0.39052412    -0.74500
O103        O  0.11089618  0.47008357  0.24011293    -0.75100
O104        O  0.04061388  0.51879314  0.28525324    -0.74500
O105        O  0.13784396  0.54957090  0.32175641    -0.75200
O106        O  0.04440356  0.47631930  0.27263524    -0.74600
O107        O  0.08945505  0.55860721  0.33956011    -0.75100
O108        O  0.04462280  0.51605398  0.39585126    -0.75000
O109        O  0.07545206  0.49027323  0.43518973    -0.74800
C110        C  0.17453297  0.49322606  0.39916615     0.77000
C111        C  0.13127543  0.48546871  0.22524604     0.77500
C112        C  0.09639478  0.42552510  0.36054072     0.76500
C113        C  0.03195881  0.49829666  0.26456381     0.76800
C114        C  0.11700715  0.56595776  0.33187709     0.78000
C115        C  0.05071267  0.50313536  0.43120001     0.77000
Zn116      Zn  0.08445649  0.27298609  0.46643082     1.49700
Zn117      Zn  0.06833324  0.21949206  0.42750439     1.49400
Zn118      Zn  0.10636104  0.26096412  0.37041191     1.49100
Zn119      Zn  0.13902719  0.23254614  0.44686884     1.49500
O120        O  0.09984872  0.24615515  0.42782011    -1.84300
O121        O  0.04069921  0.26706155  0.48504761    -0.74900
O122        O  0.04323990  0.22410251  0.37148317    -0.74700
O123        O  0.10624891  0.29972179  0.37348455    -0.74200
O124        O  0.03858026  0.22391403  0.47972841    -0.74900
O125        O  0.08995931  0.30874858  0.44137326    -0.74500
O126        O  0.07130036  0.25223439  0.33190322    -0.75100
O127        O  0.17449324  0.24453280  0.40548718    -0.74500
O128        O  0.08845937  0.18389521  0.42810527    -0.75200
O129        O  0.14686354  0.25053673  0.34413531    -0.74600
O130        O  0.13758641  0.19346365  0.44033480    -0.75100
O131        O  0.14294056  0.24050267  0.51315641    -0.75000
O132        O  0.10622508  0.27037977  0.52308507    -0.74800
C133        C  0.02787042  0.24542254  0.49452489     0.77000
C134        C  0.04743656  0.23837049  0.33721483     0.77500
C135        C  0.09914865  0.31615606  0.40324631     0.76500
C136        C  0.17270778  0.24768214  0.36327288     0.76800
C137        C  0.11634944  0.17692496  0.43321781     0.78000
C138        C  0.12718423  0.25565153  0.53807785     0.77000
Zn139      Zn  0.20174684  0.47615108  0.91575330     1.49700
Zn140      Zn  0.13058163  0.47625006  0.93830328     1.49400
Zn141      Zn  0.17670838  0.52244865  0.97068415     1.49100
Zn142      Zn  0.15777694  0.51888042  0.87041455     1.49500
O143        O  0.16616792  0.49833203  0.92345204    -1.84300
O144        O  0.18964710  0.43864315  0.90890559    -0.74900
O145        O  0.12335191  0.47826129  0.00649808    -0.74700
O146        O  0.22079290  0.51943725  0.99221354    -0.74200
O147        O  0.13948853  0.43846045  0.92033428    -0.74900
O148        O  0.23260511  0.48037337  0.96566806    -0.74500
O149        O  0.15402526  0.51149459  0.02360994    -0.75100
O150        O  0.15380528  0.55733192  0.88483145    -0.74500
O151        O  0.09331386  0.48673612  0.89960784    -0.75200
O152        O  0.16427555  0.55959913  0.95658723    -0.74600
O153        O  0.11644126  0.50913189  0.84551029    -0.75100
O154        O  0.19124589  0.51353753  0.82447732    -0.75000
O155        O  0.22211983  0.48496546  0.85825301    -0.74800
C156        C  0.16412643  0.42661062  0.90952562     0.77000
C157        C  0.13506318  0.49394836  0.03493782     0.77500
C158        C  0.23849806  0.49960850  0.99106187     0.76500
C159        C  0.15579287  0.57052162  0.92057285     0.76800
C160        C  0.09259341  0.49831703  0.86179291     0.78000
C161        C  0.21530130  0.49935816  0.82519212     0.77000
Zn162      Zn  0.17903134  0.22343454  0.78801567     1.49700
Zn163      Zn  0.13314381  0.26894878  0.82316261     1.49400
Zn164      Zn  0.16012412  0.22502782  0.88826220     1.49100
Zn165      Zn  0.20442472  0.26929809  0.84401975     1.49500
O166        O  0.16887309  0.24678779  0.83639547    -1.84300
O167        O  0.15544347  0.23483987  0.73633696    -0.74900
O168        O  0.09674066  0.25947605  0.86258535    -0.74700
O169        O  0.15640193  0.18652539  0.87217404    -0.74200
O170        O  0.12379482  0.26680556  0.75679612    -0.74900
O171        O  0.16721156  0.18616564  0.80031762    -0.74500
O172        O  0.11896171  0.23466226  0.91426184    -0.75100
O173        O  0.22284282  0.26085741  0.90270988    -0.74500
O174        O  0.14184791  0.30673601  0.83876625    -0.75200
O175        O  0.19322078  0.23052753  0.93441470    -0.74600
O176        O  0.19223047  0.30734529  0.84874698    -0.75100
O177        O  0.23729890  0.26378693  0.79615350    -0.75000
O178        O  0.22302965  0.22617940  0.76662766    -0.74800
C179        C  0.13552819  0.25206333  0.72712828     0.77000
C180        C  0.09576844  0.24711072  0.89948557     0.77500
C181        C  0.15892887  0.17427706  0.83549145     0.76500
C182        C  0.21638008  0.24574081  0.93500075     0.76800
C183        C  0.16642651  0.31902574  0.84781629     0.78000
C184        C  0.24232927  0.24472825  0.76980301     0.77000
Zn185      Zn  0.31815383  0.27051487  0.17434827     1.49700
Zn186      Zn  0.35672445  0.22813362  0.11945855     1.49400
Zn187      Zn  0.38822425  0.25710833  0.19548888     1.49100
Zn188      Zn  0.33350957  0.21635504  0.21617140     1.49500
O189        O  0.34923669  0.24321540  0.17657474    -1.84300
O190        O  0.29422915  0.26583557  0.11695495    -0.74900
O191        O  0.39837595  0.23601512  0.09495711    -0.74700
O192        O  0.38735409  0.29613425  0.18864348    -0.74200
O193        O  0.32359757  0.23836386  0.07830770    -0.74900
O194        O  0.33848793  0.30619981  0.17525761    -0.74500
O195        O  0.42428658  0.24535907  0.15630328    -0.75100
O196        O  0.35751906  0.21731036  0.27246747    -0.74500
O197        O  0.35369149  0.18966996  0.12190897    -0.75200
O198        O  0.39171328  0.24914680  0.26100507    -0.74600
O199        O  0.33349509  0.18067701  0.18762708    -0.75100
O200        O  0.29078287  0.22453099  0.23825261    -0.75000
O201        O  0.28780539  0.26726720  0.22613855    -0.74800
C202        C  0.29964470  0.25230502  0.08223664     0.77000
C203        C  0.42365540  0.24026985  0.11474632     0.77500
C204        C  0.36642199  0.31284107  0.18073506     0.76500
C205        C  0.37725342  0.23352892  0.28673064     0.76800
C206        C  0.34251832  0.17341780  0.14927792     0.78000
C207        C  0.27780489  0.24648732  0.24460996     0.77000
Zn208      Zn  0.35864228  0.00991690  0.13403900     1.49700
Zn209      Zn  0.31735162  0.96784763  0.08378343     1.49400
Zn210      Zn  0.33526671  0.02090378  0.03734376     1.49100
Zn211      Zn  0.38713808  0.97809174  0.05549372     1.49500
O212        O  0.34971095  0.99391346  0.07761242    -1.84300
O213        O  0.32877993  0.99861786  0.17990181    -0.74900
O214        O  0.28641912  0.97104178  0.03253609    -0.74700
O215        O  0.33271696  0.05633524  0.06537250    -0.74200
O216        O  0.29497696  0.97503680  0.14199415    -0.74900
O217        O  0.35285480  0.04841324  0.13161537    -0.74500
O218        O  0.29480776  0.01170746  0.01020605    -0.75100
O219        O  0.39097436  0.98699804  0.98974311    -0.74500
O220        O  0.33633766  0.93119057  0.08454513    -0.75200
O221        O  0.36177978  0.02262073  0.98408948    -0.74600
O222        O  0.38377331  0.93919363  0.06176272    -0.75100
O223        O  0.42463294  0.98807519  0.09327403    -0.75000
O224        O  0.40181774  0.00416965  0.15349954    -0.74800
C225        C  0.30308022  0.98702666  0.17726311     0.77000
C226        C  0.27976170  0.99052820  0.00768295     0.77500
C227        C  0.34128066  0.06408131  0.10351595     0.76500
C228        C  0.37940718  0.00565411  0.96697445     0.76800
C229        C  0.36318509  0.92315869  0.07437553     0.78000
C230        C  0.42580850  0.99684312  0.13298461     0.77000
Zn231      Zn  0.42863713  0.27722747  0.53635756     1.49700
Zn232      Zn  0.45777013  0.23223581  0.58959804     1.49400
Zn233      Zn  0.41173966  0.27299982  0.63790561     1.49100
Zn234      Zn  0.38594223  0.22977102  0.57290222     1.49500
O235        O  0.42062985  0.25304063  0.58466869    -1.84300
O236        O  0.47217647  0.27661758  0.51264396    -0.74900
O237        O  0.47746870  0.24024173  0.64695704    -0.74700
O238        O  0.40710819  0.31163799  0.62358294    -0.74200
O239        O  0.48847427  0.23920206  0.54057376    -0.74900
O240        O  0.41588259  0.31395648  0.55126108    -0.74500
O241        O  0.44516381  0.26648141  0.68281948    -0.75100
O242        O  0.34909860  0.23724611  0.61403664    -0.74500
O243        O  0.44867354  0.19391005  0.59326497    -0.75200
O244        O  0.37116552  0.26235980  0.66498317    -0.74600
O245        O  0.39801368  0.19288357  0.58781407    -0.75100
O246        O  0.37687845  0.23073450  0.50619749    -0.75000
O247        O  0.40548681  0.26458285  0.48477845    -0.74800
C248        C  0.49207769  0.25846615  0.51416865     0.77000
C249        C  0.46982181  0.25310244  0.68128123     0.77500
C250        C  0.40820045  0.32484695  0.58765525     0.76500
C251        C  0.34816664  0.24942114  0.65109115     0.76800
C252        C  0.42351634  0.18137832  0.59405143     0.78000
C253        C  0.38761645  0.24574186  0.47592679     0.77000
Zn254      Zn  0.40960298  0.01795092  0.60955622     1.49700
Zn255      Zn  0.37705395  0.98860599  0.68605753     1.49400
Zn256      Zn  0.44741947  0.97362290  0.66168614     1.49100
Zn257      Zn  0.43354327  0.02744297  0.70606383     1.49500
O258        O  0.41683973  0.00150547  0.66598605    -1.84300
O259        O  0.36756920  0.01212926  0.58558346    -0.74900
O260        O  0.37746536  0.94935867  0.68300162    -0.74700
O261        O  0.46879220  0.97634418  0.60149679    -0.74200
O262        O  0.34129644  0.00064603  0.64561729    -0.74900
O263        O  0.44030563  0.00608092  0.56641829    -0.74500
O264        O  0.42541024  0.93872219  0.66574292    -0.75100
O265        O  0.47606050  0.01883307  0.72691805    -0.74500
O266        O  0.37201564  0.99788875  0.75124678    -0.75200
O267        O  0.48017126  0.97682599  0.71137537    -0.74600
O268        O  0.41031569  0.02583275  0.76242418    -0.75100
O269        O  0.43230771  0.06397070  0.68109347    -0.75000
O270        O  0.41445766  0.05646092  0.61345895    -0.74800
C271        C  0.34214307  0.00764361  0.60474343     0.77000
C272        C  0.39783927  0.93217882  0.67474304     0.77500
C273        C  0.46283441  0.99038904  0.56742593     0.76500
C274        C  0.48957927  0.99706200  0.73219222     0.76800
C275        C  0.38777245  0.01257845  0.77674821     0.78000
C276        C  0.42384907  0.07214749  0.64308027     0.77000
Zn277      Zn  0.56344700  0.97620207  0.32919144     1.49700
Zn278      Zn  0.63503442  0.97873278  0.31384682     1.49400
Zn279      Zn  0.58859706  0.02438124  0.28104941     1.49100
Zn280      Zn  0.60493884  0.01814298  0.38206930     1.49500
O281        O  0.59846986  0.99940449  0.32711866    -1.84300
O282        O  0.57637186  0.93913509  0.33532208    -0.74900
O283        O  0.64290643  0.98119268  0.24631340    -0.74700
O284        O  0.54547375  0.02097467  0.25607818    -0.74200
O285        O  0.62724991  0.94081734  0.33157177    -0.74900
O286        O  0.53555062  0.98019099  0.27589249    -0.74500
O287        O  0.61278225  0.01478030  0.22864300    -0.75100
O288        O  0.60795929  0.05736225  0.37088546    -0.74500
O289        O  0.67124580  0.98993684  0.35322967    -0.75200
O290        O  0.59929724  0.06127185  0.29873864    -0.74600
O291        O  0.64588416  0.00785729  0.40953064    -0.75100
O292        O  0.56966623  0.01010223  0.42357535    -0.75000
O293        O  0.53998565  0.98302056  0.38456275    -0.74800
C294        C  0.60245221  0.92826431  0.33844302     0.77000
C295        C  0.63169717  0.99710951  0.21766004     0.77500
C296        C  0.52992987  0.00004663  0.25165717     0.76500
C297        C  0.60642973  0.07145720  0.33587035     0.76800
C298        C  0.67068332  0.99875763  0.39298596     0.78000
C299        C  0.54562478  0.99610341  0.41944582     0.77000
Zn300      Zn  0.58430361  0.77798816  0.46056400     1.49700
Zn301      Zn  0.56703794  0.72358790  0.41884062     1.49400
Zn302      Zn  0.60672430  0.76467330  0.36398910     1.49100
Zn303      Zn  0.63709231  0.73558121  0.44223755     1.49500
O304        O  0.59870026  0.75025737  0.42154295    -1.84300
O305        O  0.54055967  0.77194418  0.48091034    -0.74900
O306        O  0.54397096  0.72813969  0.36023252    -0.74700
O307        O  0.60413208  0.80342939  0.36488479    -0.74200
O308        O  0.53624795  0.72933537  0.46982134    -0.74900
O309        O  0.58972218  0.81420474  0.43325396    -0.74500
O310        O  0.57526773  0.75359185  0.32101638    -0.75100
O311        O  0.67401686  0.74858759  0.40471758    -0.74500
O312        O  0.58703223  0.68704373  0.42120044    -0.75200
O313        O  0.64867774  0.75663280  0.34213001    -0.74600
O314        O  0.63601252  0.69653157  0.43395634    -0.75100
O315        O  0.63850339  0.74184565  0.50906448    -0.75000
O316        O  0.60567003  0.77479617  0.51862983    -0.74800
C317        C  0.52690919  0.75033235  0.48838624     0.77000
C318        C  0.55069152  0.74046148  0.32453412     0.77500
C319        C  0.59724916  0.82053166  0.39366377     0.76500
C320        C  0.67379252  0.75388725  0.36303960     0.76800
C321        C  0.61498207  0.67991116  0.42621727     0.78000
C322        C  0.62379370  0.75760386  0.53418169     0.77000
Zn323      Zn  0.62891926  0.00721291  0.93507539     1.49700
Zn324      Zn  0.68286581  0.96648247  0.95731270     1.49400
Zn325      Zn  0.66185893  0.97671680  0.85877875     1.49100
Zn326      Zn  0.69911758  0.02036062  0.91227563     1.49500
O327        O  0.66805372  0.99289858  0.91586934    -1.84300
O328        O  0.62344312  0.99913370  0.00132302    -0.74900
O329        O  0.67936108  0.92977952  0.93267154    -0.74700
O330        O  0.62012088  0.98432129  0.83335907    -0.74200
O331        O  0.65987135  0.96952319  0.01421413    -0.74900
O332        O  0.59358630  0.99665335  0.89294474    -0.74500
O333        O  0.66409700  0.93803991  0.86386197    -0.75100
O334        O  0.72218300  0.01697250  0.85397375    -0.74500
O335        O  0.72609059  0.97398381  0.97729521    -0.75200
O336        O  0.69532903  0.98709595  0.81705938    -0.74600
O337        O  0.73071174  0.01627117  0.96201185    -0.75100
O338        O  0.67900938  0.05622759  0.91461074    -0.75000
O339        O  0.63068780  0.04631312  0.93011654    -0.74800
C340        C  0.63839232  0.98425474  0.02782784     0.77000
C341        C  0.67142119  0.92192220  0.89423383     0.77500
C342        C  0.59473391  0.99004989  0.85191015     0.76500
C343        C  0.71786525  0.00276776  0.81980231     0.76800
C344        C  0.74026053  0.99559322  0.98142118     0.78000
C345        C  0.65135287  0.06318686  0.92170889     0.77000
Zn346      Zn  0.67533405  0.71739767  0.78467542     1.49700
Zn347      Zn  0.70313333  0.76251126  0.83983279     1.49400
Zn348      Zn  0.63145166  0.76434709  0.82075184     1.49100
Zn349      Zn  0.65853759  0.72149605  0.88745322     1.49500
O350        O  0.66662744  0.74137717  0.83329227    -1.84300
O351        O  0.71876746  0.72079500  0.75954714    -0.74900
O352        O  0.69298866  0.80021629  0.84521096    -0.74700
O353        O  0.62120151  0.76177573  0.75442212    -0.74200
O354        O  0.73381230  0.75764269  0.79062457    -0.74900
O355        O  0.64988234  0.72804531  0.73314027    -0.74500
O356        O  0.64278760  0.80196048  0.83389488    -0.75100
O357        O  0.61822053  0.73211154  0.91424009    -0.74500
O358        O  0.72358268  0.75386442  0.89648137    -0.75200
O359        O  0.59527137  0.75671376  0.86299850    -0.74600
O360        O  0.69214662  0.72721391  0.93304132    -0.75100
O361        O  0.65401791  0.68304710  0.87369173    -0.75000
O362        O  0.66508969  0.68009057  0.80169760    -0.74800
C363        C  0.73804934  0.73940313  0.76264175     0.77000
C364        C  0.66809759  0.81305071  0.84327555     0.77500
C365        C  0.63118451  0.74639813  0.72428477     0.76500
C366        C  0.59502231  0.74493343  0.90057341     0.76800
C367        C  0.71679991  0.74052426  0.93072136     0.78000
C368        C  0.65680411  0.66961716  0.83831690     0.77000
Zn369      Zn  0.85732719  0.73446856  0.11715298     1.49700
Zn370      Zn  0.88627137  0.76343561  0.19527929     1.49400
Zn371      Zn  0.81641747  0.77553406  0.16956329     1.49100
Zn372      Zn  0.83316147  0.72161680  0.21270864     1.49500
O373        O  0.84829909  0.74908381  0.17399711    -1.84300
O374        O  0.89862550  0.74418226  0.09388559    -0.74900
O375        O  0.88401398  0.80225631  0.18951102    -0.74700
O376        O  0.79208384  0.76861430  0.11286123    -0.74200
O377        O  0.92329328  0.75271717  0.15688391    -0.74900
O378        O  0.82396382  0.74279887  0.07535141    -0.74500
O379        O  0.83637872  0.81182534  0.16853282    -0.75100
O380        O  0.79149406  0.72992060  0.23815936    -0.74500
O381        O  0.88886960  0.75470632  0.26083868    -0.75200
O382        O  0.78708055  0.77217338  0.22265899    -0.74600
O383        O  0.85782099  0.72030809  0.26781553    -0.75100
O384        O  0.83494913  0.68635092  0.18407900    -0.75000
O385        O  0.85784288  0.69584061  0.12017614    -0.74800
C386        C  0.92341494  0.74790351  0.11517870     0.77000
C387        C  0.86365768  0.81887223  0.17852119     0.77500
C388        C  0.79864807  0.75495476  0.07867554     0.76500
C389        C  0.77873587  0.75197042  0.24462789     0.76800
C390        C  0.87581408  0.73711445  0.28432840     0.78000
C391        C  0.84735289  0.67930810  0.14773120     0.77000
Zn392      Zn  0.83492868  0.52454086  0.04463892     1.49700
Zn393      Zn  0.81970213  0.47269226  0.09518461     1.49400
Zn394      Zn  0.89014450  0.48358126  0.06442481     1.49100
Zn395      Zn  0.86176459  0.51637497  0.13974749     1.49500
O396        O  0.85171329  0.49874438  0.08545450    -1.84300
O397        O  0.79239955  0.51583156  0.02305299    -0.74900
O398        O  0.83915788  0.43629417  0.09411873    -0.74700
O399        O  0.89553742  0.49309543  0.99898761    -0.74200
O400        O  0.78611966  0.47522755  0.04699192    -0.74900
O401        O  0.85862525  0.52268045  0.98913560    -0.74500
O402        O  0.88609441  0.44455241  0.06800084    -0.75100
O403        O  0.90279478  0.50780117  0.16397900    -0.74500
O404        O  0.79935330  0.48039406  0.15475029    -0.75200
O405        O  0.92735409  0.49325692  0.10442275    -0.74600
O406        O  0.83019768  0.50993930  0.18511081    -0.75100
O407        O  0.86194183  0.55458279  0.13114346    -0.75000
O408        O  0.83714527  0.56136574  0.06805078    -0.74800
C409        C  0.77748347  0.49446744  0.02289683     0.77000
C410        C  0.86551201  0.42855937  0.08083498     0.77500
C411        C  0.88058105  0.50896588  0.97429609     0.76500
C412        C  0.92750238  0.50119064  0.14476044     0.76800
C413        C  0.80607356  0.49616564  0.18610437     0.78000
C414        C  0.85029323  0.57001821  0.10274120     0.77000
Zn415      Zn  0.93091462  0.52790060  0.71378430     1.49700
Zn416      Zn  0.90885229  0.51752122  0.61733042     1.49400
Zn417      Zn  0.94782549  0.47406584  0.67017751     1.49100
Zn418      Zn  0.87712568  0.48637751  0.69301935     1.49500
O419        O  0.91611270  0.50102506  0.67375829    -1.84300
O420        O  0.92797091  0.56452334  0.68878661    -0.74900
O421        O  0.94085651  0.50729953  0.57487279    -0.74700
O422        O  0.97872508  0.47819719  0.72183952    -0.74200
O423        O  0.91085161  0.55631390  0.62121438    -0.74900
O424        O  0.97342780  0.52038219  0.73674019    -0.74500
O425        O  0.97081112  0.47938992  0.61136743    -0.75100
O426        O  0.87909902  0.44709697  0.68788505    -0.74500
O427        O  0.86772183  0.50994493  0.59246708    -0.75200
O428        O  0.92766865  0.43763269  0.67202116    -0.74600
O429        O  0.84132857  0.49814070  0.65238327    -0.75100
O430        O  0.87218472  0.49445723  0.75888828    -0.75000
O431        O  0.90713391  0.52564925  0.76924239    -0.74800
C432        C  0.91908988  0.57246429  0.65082342     0.77000
C433        C  0.96468617  0.49309140  0.57686649     0.77500
C434        C  0.98718901  0.49868810  0.74273188     0.76500
C435        C  0.90000746  0.43042646  0.67931424     0.76800
C436        C  0.84234247  0.50508605  0.61145790     0.78000
C437        C  0.88675309  0.51022478  0.78402308     0.77000
Zn438      Zn  0.92569408  0.77576102  0.53352962     1.49700
Zn439      Zn  0.90788074  0.77274184  0.63489828     1.49400
Zn440      Zn  0.88243349  0.72910659  0.56974126     1.49100
Zn441      Zn  0.95361148  0.73125405  0.58907054     1.49500
O442        O  0.91701233  0.75226710  0.58236423    -1.84300
O443        O  0.91300391  0.81268153  0.54682613    -0.74900
O444        O  0.86697369  0.76192411  0.66091941    -0.74700
O445        O  0.87400244  0.72923409  0.50335304    -0.74200
O446        O  0.90351636  0.81115080  0.61937708    -0.74900
O447        O  0.90256511  0.76311301  0.48187096    -0.74500
O448        O  0.84531988  0.73771582  0.60828950    -0.75100
O449        O  0.94327647  0.69349593  0.59746552    -0.74500
O450        O  0.94117478  0.76711031  0.68063107    -0.75200
O451        O  0.89300038  0.69223618  0.58679164    -0.74600
O452        O  0.97417341  0.74105059  0.64541430    -0.75100
O453        O  0.98285650  0.73511019  0.53704451    -0.75000
O454        O  0.96938123  0.77392266  0.51066636    -0.74800
C455        C  0.90514560  0.82381209  0.58288862     0.77000
C456        C  0.84401336  0.74941816  0.64568293     0.77500
C457        C  0.88469566  0.74426202  0.47320896     0.76500
C458        C  0.91810730  0.68101180  0.59668630     0.76800
C459        C  0.96596413  0.75387046  0.67956658     0.78000
C460        C  0.98706478  0.75410737  0.51029990     0.77000
Zn461      Zn  0.66090551  0.48493742  0.36500474     1.49700
Zn462      Zn  0.62920067  0.51256375  0.44272491     1.49400
Zn463      Zn  0.68515168  0.47235840  0.45941146     1.49100
Zn464      Zn  0.69891594  0.52735391  0.41970930     1.49500
O465        O  0.66836258  0.49972885  0.42219597    -1.84300
O466        O  0.62125416  0.49660151  0.33853946    -0.74900
O467        O  0.62490244  0.50189331  0.50832830    -0.74700
O468        O  0.68405448  0.43679756  0.43030053    -0.74200
O469        O  0.59397906  0.50113579  0.40056749    -0.74900
O470        O  0.65950579  0.44592176  0.36746015    -0.74500
O471        O  0.66153560  0.47178862  0.51577025    -0.75100
O472        O  0.72809555  0.52382358  0.47280696    -0.74500
O473        O  0.62996162  0.55206579  0.43904623    -0.75200
O474        O  0.72742670  0.48079784  0.48177189    -0.74600
O475        O  0.67747527  0.56324366  0.42068740    -0.75100
O476        O  0.72459168  0.52141184  0.36382531    -0.75000
O477        O  0.69607815  0.49291449  0.32629030    -0.74800
C478        C  0.59556295  0.49896216  0.35818429     0.77000
C479        C  0.63999210  0.48550516  0.53201429     0.77500
C480        C  0.67140923  0.42958525  0.39422312     0.76500
C481        C  0.73839529  0.50310848  0.49135473     0.76800
C482        C  0.64976821  0.56958420  0.42998136     0.78000
C483        C  0.72038191  0.50629156  0.33065895     0.77000
Zn484      Zn  0.68164934  0.22318823  0.29316554     1.49700
Zn485      Zn  0.70754637  0.26933489  0.34579789     1.49400
Zn486      Zn  0.63752077  0.27206426  0.31968108     1.49100
Zn487      Zn  0.66068650  0.22960672  0.39104574     1.49500
O488        O  0.67120505  0.24871717  0.33769721    -1.84300
O489        O  0.72617959  0.22395599  0.27379836    -0.74900
O490        O  0.69775636  0.30723131  0.35028338    -0.74700
O491        O  0.62991808  0.26803451  0.25281961    -0.74200
O492        O  0.73827442  0.26364557  0.29700551    -0.74900
O493        O  0.66083586  0.23434498  0.23925583    -0.74500
O494        O  0.64898373  0.30986238  0.33103159    -0.75100
O495        O  0.62098354  0.24291442  0.41456350    -0.74500
O496        O  0.72658228  0.26041296  0.40343162    -0.75200
O497        O  0.59965497  0.26515970  0.35875670    -0.74600
O498        O  0.69354624  0.23402876  0.43773357    -0.75100
O499        O  0.65204587  0.19141148  0.37827371    -0.75000
O500        O  0.66585907  0.18702021  0.30779235    -0.74800
C501        C  0.74407469  0.24363480  0.27348658     0.77000
C502        C  0.67376333  0.32071814  0.34371440     0.77500
C503        C  0.64221014  0.25173252  0.22611383     0.76500
C504        C  0.59809142  0.25452347  0.39724516     0.76800
C505        C  0.71821085  0.24739345  0.43731851     0.78000
C506        C  0.65431742  0.17758430  0.34330091     0.77000
Zn507      Zn  0.56950939  0.51891892  0.83702336     1.49700
Zn508      Zn  0.58541181  0.46547187  0.79296827     1.49400
Zn509      Zn  0.64017522  0.50532096  0.81620409     1.49100
Zn510      Zn  0.60688954  0.47567869  0.89075390     1.49500
O511        O  0.60057187  0.49162971  0.83383760    -1.84300
O512        O  0.54000602  0.51632467  0.78417864    -0.74900
O513        O  0.60940922  0.46848739  0.73691691    -0.74700
O514        O  0.63867601  0.54424347  0.82328280    -0.74200
O515        O  0.54226552  0.47364247  0.77145860    -0.74900
O516        O  0.59040139  0.55461958  0.83918694    -0.74500
O517        O  0.64625204  0.49775153  0.74975541    -0.75100
O518        O  0.64665444  0.48611678  0.91936185    -0.74500
O519        O  0.58897094  0.42876662  0.81855248    -0.75200
O520        O  0.67487014  0.49405861  0.85946802    -0.74600
O521        O  0.60779999  0.43716048  0.88530926    -0.75100
O522        O  0.57140222  0.48318725  0.92968542    -0.75000
O523        O  0.54414457  0.51302283  0.89287438    -0.74800
C524        C  0.52999611  0.49593442  0.76458187     0.77000
C525        C  0.63109194  0.48306540  0.72334845     0.77500
C526        C  0.61837361  0.56117413  0.83313561     0.76500
C527        C  0.67267528  0.49047505  0.90155764     0.76800
C528        C  0.59909914  0.42095416  0.85605563     0.78000
C529        C  0.54801510  0.49785064  0.92613911     0.77000
Zn530      Zn  0.56349750  0.26399479  0.92337906     1.49700
Zn531      Zn  0.60829016  0.22426154  0.87246990     1.49400
Zn532      Zn  0.63447323  0.26428318  0.94226819     1.49100
Zn533      Zn  0.58833830  0.21736304  0.97102676     1.49500
O534        O  0.59947352  0.24248555  0.92668495    -1.84300
O535        O  0.54071260  0.25433468  0.86919869    -0.74900
O536        O  0.64769252  0.23758843  0.84613621    -0.74700
O537        O  0.62478578  0.30195695  0.92671775    -0.74200
O538        O  0.57338582  0.23009486  0.82992377    -0.74900
O539        O  0.57466609  0.30119137  0.91408211    -0.74500
O540        O  0.67175646  0.25554255  0.90331473    -0.75100
O541        O  0.60950847  0.22846822  0.02486746    -0.74500
O542        O  0.61479322  0.18549725  0.88392839    -0.75200
O543        O  0.64169334  0.26099567  0.00918219    -0.74600
O544        O  0.60177314  0.18113555  0.95493449    -0.75100
O545        O  0.54366338  0.21808877  0.98946884    -0.75000
O546        O  0.53546314  0.26010870  0.97657832    -0.74800
C547        C  0.54786194  0.24203905  0.83402438     0.77000
C548        C  0.67174982  0.24763416  0.86303833     0.77500
C549        C  0.59999476  0.31338060  0.91545274     0.76500
C550        C  0.62899120  0.24540426  0.03690600     0.76800
C551        C  0.61159843  0.17145040  0.91869972     0.78000
C552        C  0.52809967  0.23881008  0.99567539     0.77000
Zn553      Zn  0.14050073  0.00989311  0.80940210     1.49700
Zn554      Zn  0.07005223  0.02414371  0.82912265     1.49400
Zn555      Zn  0.08670167  0.96968687  0.78632683     1.49100
Zn556      Zn  0.10619211  0.98095997  0.88467891     1.49500
O557        O  0.10076556  0.99641716  0.82707499    -1.84300
O558        O  0.14020932  0.04894862  0.81621703    -0.74900
O559        O  0.04050947  0.02084196  0.77616420    -0.74700
O560        O  0.11241935  0.97073172  0.73228889    -0.74200
O561        O  0.09164752  0.05964887  0.83041691    -0.74900
O562        O  0.14677412  0.00216908  0.74384047    -0.74500
O563        O  0.04512390  0.97866243  0.76070653    -0.75100
O564        O  0.10306642  0.94249036  0.88173353    -0.74500
O565        O  0.04470167  0.01984459  0.88547541    -0.75200
O566        O  0.08812020  0.93319723  0.81299085    -0.74600
O567        O  0.07240403  0.99127378  0.92456119    -0.75100
O568        O  0.14743012  0.98805768  0.91101564    -0.75000
O569        O  0.17485902  0.99635866  0.85042272    -0.74800
C570        C  0.11976992  0.06596781  0.82498336     0.77000
C571        C  0.03191687  0.00064435  0.75461445     0.77500
C572        C  0.13341108  0.98585176  0.71839223     0.76500
C573        C  0.09542454  0.92613974  0.85222814     0.76800
C574        C  0.04906204  0.00585044  0.92004284     0.78000
C575        C  0.17326283  0.99070131  0.89184893     0.77000
Zn576      Zn  0.13439854  0.77044285  0.93646660     1.49700
Zn577      Zn  0.06204084  0.77059061  0.92140310     1.49400
Zn578      Zn  0.10547732  0.72978195  0.86993074     1.49100
Zn579      Zn  0.08876378  0.72408542  0.97028059     1.49500
O580        O  0.09825746  0.74885122  0.92405601    -1.84300
O581        O  0.12435538  0.80790113  0.92023061    -0.74900
O582        O  0.03924261  0.76244795  0.86595794    -0.74700
O583        O  0.14451208  0.74173540  0.84064395    -0.74200
O584        O  0.07358345  0.80777572  0.91343442    -0.74900
O585        O  0.17038188  0.76142504  0.89457251    -0.74500
O586        O  0.07040547  0.73610228  0.82796009    -0.75100
O587        O  0.10193379  0.68763000  0.95478946    -0.74500
O588        O  0.03408514  0.76651272  0.97497379    -0.75200
O589        O  0.11204239  0.69114440  0.88270016    -0.74600
O590        O  0.04515000  0.72576048  0.99402118    -0.75100
O591        O  0.11255422  0.73503144  0.02160300    -0.75000
O592        O  0.14413637  0.76750883  0.00332201    -0.74800
C593        C  0.09920786  0.81946640  0.91131236     0.77000
C594        C  0.04603546  0.74977788  0.83100729     0.77500
C595        C  0.16916683  0.75179408  0.85539168     0.76500
C596        C  0.11076086  0.67758583  0.91828714     0.76800
C597        C  0.02880915  0.74624652  0.99840204     0.78000
C598        C  0.13251892  0.75188468  0.03206423     0.77000
Zn599      Zn  0.12830936  0.01261779  0.43746957     1.49700
Zn600      Zn  0.15863769  0.98196966  0.36043273     1.49400
Zn601      Zn  0.19852414  0.02496555  0.41052996     1.49100
Zn602      Zn  0.18346578  0.97248100  0.45689875     1.49500
O603        O  0.16695903  0.99833228  0.41646677    -1.84300
O604        O  0.09158004  0.00309064  0.39731790    -0.74900
O605        O  0.19054328  0.99140966  0.31664355    -0.74700
O606        O  0.17828118  0.06081978  0.41019154    -0.74200
O607        O  0.11672141  0.98968781  0.33720908    -0.74900
O608        O  0.13099025  0.05131737  0.43228448    -0.74500
O609        O  0.22209649  0.01779156  0.35314102    -0.75100
O610        O  0.22544455  0.98132345  0.48019036    -0.74500
O611        O  0.16171409  0.94338704  0.36552336    -0.75200
O612        O  0.22861580  0.02330464  0.46287209    -0.74600
O613        O  0.18234216  0.93630474  0.43194598    -0.75100
O614        O  0.15980197  0.97355187  0.51236628    -0.75000
O615        O  0.12383598  0.00405216  0.50349953    -0.74800
C616        C  0.09193805  0.99634157  0.35639465     0.77000
C617        C  0.21546619  0.00416681  0.31894752     0.77500
C618        C  0.15114301  0.06794936  0.42060945     0.76500
C619        C  0.23763186  0.00365101  0.48560024     0.76800
C620        C  0.17249549  0.92802587  0.39478552     0.78000
C621        C  0.13908275  0.98829437  0.52802691     0.77000
Zn622      Zn  0.18238328  0.77388817  0.29373809     1.49700
Zn623      Zn  0.15725990  0.76301328  0.38857981     1.49400
Zn624      Zn  0.12758152  0.73295693  0.31119546     1.49100
Zn625      Zn  0.19679809  0.71965015  0.33806416     1.49500
O626        O  0.16587486  0.74695940  0.33257754    -1.84300
O627        O  0.18212461  0.80961412  0.32142881    -0.74900
O628        O  0.11596826  0.75456754  0.41245488    -0.74700
O629        O  0.12425961  0.74276760  0.24576905    -0.74200
O630        O  0.15794303  0.80159197  0.38442181    -0.74900
O631        O  0.15871396  0.77458732  0.23776424    -0.74500
O632        O  0.09109993  0.74396196  0.35049707    -0.75100
O633        O  0.17640162  0.68350908  0.33647980    -0.74500
O634        O  0.19044066  0.75476387  0.43072421    -0.75200
O635        O  0.12913896  0.69372443  0.31583857    -0.74600
O636        O  0.22011150  0.72573510  0.39598447    -0.75100
O637        O  0.22761778  0.72284734  0.28691592    -0.75000
O638        O  0.22424603  0.76489114  0.27042951    -0.74800
C639        C  0.17026068  0.81755217  0.35765462     0.77000
C640        C  0.09118024  0.75000212  0.39173222     0.77500
C641        C  0.13850094  0.75949398  0.22176338     0.76500
C642        C  0.14910078  0.67662867  0.32621252     0.76800
C643        C  0.21458534  0.74094651  0.42861988     0.78000
C644        C  0.23713318  0.74277220  0.26537570     0.77000
Zn645      Zn  0.81651250  0.22629678  0.67570157     1.49700
Zn646      Zn  0.84152752  0.27237966  0.72847497     1.49400
Zn647      Zn  0.88725737  0.22697549  0.69251906     1.49100
Zn648      Zn  0.85921057  0.26934569  0.62777034     1.49500
O649        O  0.85164586  0.24898138  0.68050658    -1.84300
O650        O  0.78677863  0.23022167  0.72649907    -0.74900
O651        O  0.86190064  0.25781169  0.78153547    -0.74700
O652        O  0.87909930  0.19014077  0.67128270    -0.74200
O653        O  0.79660718  0.27089538  0.74679499    -0.74900
O654        O  0.82847078  0.18898749  0.66659591    -0.74500
O655        O  0.89328680  0.22581501  0.75975789    -0.75100
O656        O  0.89927282  0.25796580  0.60020257    -0.74500
O657        O  0.85530194  0.30965424  0.71559041    -0.75200
O658        O  0.92430940  0.23809083  0.65507724    -0.74600
O659        O  0.86437254  0.30799079  0.64296012    -0.75100
O660        O  0.82442190  0.26326502  0.58432390    -0.75000
O661        O  0.79432899  0.23521106  0.62053874    -0.74800
C662        C  0.77962304  0.25063328  0.74822580     0.77000
C663        C  0.88023068  0.23916929  0.79022679     0.77500
C664        C  0.85443087  0.17788307  0.66282052     0.76500
C665        C  0.92361242  0.24745544  0.61561653     0.76800
C666        C  0.86305265  0.32081810  0.67927147     0.78000
C667        C  0.80047779  0.24895221  0.58649392     0.77000
Zn668      Zn  0.88805744  0.02468616  0.56049537     1.49700
Zn669      Zn  0.86109818  0.98294394  0.62851728     1.49400
Zn670      Zn  0.81654329  0.02502398  0.58250583     1.49100
Zn671      Zn  0.84181183  0.97925822  0.52810013     1.49500
O672        O  0.85229837  0.00304267  0.57541654    -1.84300
O673        O  0.92571123  0.01410522  0.59772630    -0.74900
O674        O  0.82760849  0.98836497  0.67432952    -0.74700
O675        O  0.82903636  0.06242793  0.58869077    -0.74200
O676        O  0.90275540  0.99250554  0.65295958    -0.74900
O677        O  0.87957543  0.06181436  0.57928295    -0.74500
O678        O  0.79612426  0.01625263  0.64015959    -0.75100
O679        O  0.79706736  0.98101777  0.50823410    -0.74500
O680        O  0.86485256  0.94463269  0.61394664    -0.75200
O681        O  0.78546531  0.02045845  0.53257569    -0.74600
O682        O  0.85584645  0.94250501  0.54160466    -0.75100
O683        O  0.86238178  0.99218686  0.47459240    -0.75000
O684        O  0.89373167  0.02475547  0.49248904    -0.74800
C685        C  0.92655964  0.00297514  0.63587456     0.77000
C686        C  0.80312224  0.00202334  0.67339579     0.77500
C687        C  0.85490678  0.07389859  0.58880011     0.76500
C688        C  0.77928572  0.00084701  0.50820371     0.76800
C689        C  0.86366127  0.93158759  0.57797611     0.78000
C690        C  0.88031897  0.01058336  0.46348914     0.77000
Zn691      Zn  0.92885723  0.27291518  0.03969021     1.49700
Zn692      Zn  0.95626113  0.22743224  0.09487651     1.49400
Zn693      Zn  0.91201039  0.26941355  0.14062879     1.49100
Zn694      Zn  0.88491963  0.22743135  0.07538499     1.49500
O695        O  0.92046722  0.24929451  0.08808943    -1.84300
O696        O  0.97311366  0.27225927  0.01941518    -0.74900
O697        O  0.97499485  0.23427770  0.15392629    -0.74700
O698        O  0.90581711  0.30761763  0.12544944    -0.74200
O699        O  0.98736380  0.23375741  0.04601927    -0.74900
O700        O  0.91325454  0.30940612  0.05266286    -0.74500
O701        O  0.94447863  0.26317790  0.18712629    -0.75100
O702        O  0.84771995  0.23763880  0.11272723    -0.74500
O703        O  0.94485267  0.18951191  0.09840055    -0.75200
O704        O  0.87221759  0.25781297  0.16706610    -0.74600
O705        O  0.89404727  0.19066504  0.09433424    -0.75100
O706        O  0.87796562  0.22619784  0.00857743    -0.75000
O707        O  0.90864621  0.25848941  0.98674798    -0.74800
C708        C  0.99195412  0.25322599  0.02029361     0.77000
C709        C  0.96740078  0.24770974  0.18766834     0.77500
C710        C  0.90519986  0.32030513  0.08897160     0.76500
C711        C  0.84808722  0.24704919  0.15196481     0.76800
C712        C  0.91889235  0.17830417  0.10124974     0.78000
C713        C  0.89068137  0.23970763  0.97802511     0.77000
Zn714      Zn  0.95378132  0.01926143  0.16034065     1.49700
Zn715      Zn  0.92541023  0.97480184  0.21442238     1.49400
Zn716      Zn  0.88208676  0.02084900  0.17648880     1.49100
Zn717      Zn  0.90945564  0.97749728  0.11301483     1.49500
O718        O  0.91728396  0.99809794  0.16546503    -1.84300
O719        O  0.98277104  0.01476236  0.21278911    -0.74900
O720        O  0.90459558  0.98949110  0.26676445    -0.74700
O721        O  0.89230582  0.05744168  0.15627638    -0.74200
O722        O  0.96967281  0.97502090  0.23525720    -0.74900
O723        O  0.94308633  0.05691871  0.15220651    -0.74500
O724        O  0.87501407  0.02238795  0.24360781    -0.75100
O725        O  0.86936824  0.98804327  0.08579053    -0.74500
O726        O  0.91000756  0.93844729  0.20164685    -0.75200
O727        O  0.84499079  0.01047721  0.13825925    -0.74600
O728        O  0.90382123  0.93911579  0.12837700    -0.75100
O729        O  0.94303968  0.98354423  0.06802865    -0.75000
O730        O  0.97502635  0.01006400  0.10374244    -0.74800
C731        C  0.98758098  0.99466681  0.23691700     0.77000
C732        C  0.88693506  0.00864140  0.27463164     0.77500
C733        C  0.91766760  0.06887363  0.14843826     0.76500
C734        C  0.84535085  0.99939626  0.10018834     0.76800
C735        C  0.90263463  0.92709109  0.16551976     0.78000
C736        C  0.96766095  0.99693008  0.06949090     0.77000
C737        C  0.91774734  0.15037598  0.11330389    -0.06200
C738        C  0.94006473  0.13366286  0.09562254    -0.17400
C739        C  0.93994685  0.10695700  0.10514330     0.10900
C740        C  0.91761392  0.09659554  0.13450833    -0.06200
C741        C  0.89505481  0.11328913  0.15179447    -0.17400
C742        C  0.89508163  0.14000634  0.14203529     0.11000
S743        S  0.96789291  0.08715082  0.07662491    -0.32400
S744        S  0.86677890  0.15992975  0.16961198    -0.32400
H745        H  0.88691709  0.18073602  0.17837953     0.29000
H746        H  0.94758301  0.06639625  0.06829850     0.29000
H747        H  0.95727849  0.14135890  0.07309512     0.19600
H748        H  0.87789428  0.10565262  0.17444962     0.19600
C749        C  0.88227710  0.01604296  0.41526771    -0.06200
C750        C  0.85510020  0.01254507  0.39056120    -0.17400
C751        C  0.85519069  0.01223782  0.34420420     0.10900
C752        C  0.88307489  0.01564042  0.32157459    -0.06200
C753        C  0.90992018  0.02093003  0.34595124    -0.17400
C754        C  0.90978401  0.02145352  0.39248754     0.11000
S755        S  0.81994495  0.00399236  0.31640036    -0.32400
S756        S  0.94577750  0.02603684  0.42053608    -0.32400
H757        H  0.93466349  0.04643210  0.44726835     0.29000
H758        H  0.82421764  0.02132198  0.28070432     0.29000
H759        H  0.83363213  0.00875234  0.40763231     0.19600
H760        H  0.93154233  0.02332248  0.32854651     0.19600
C761        C  0.88405529  0.23255928  0.83747240    -0.06200
C762        C  0.85724377  0.23075383  0.86346052    -0.17400
C763        C  0.85854991  0.23052943  0.90987184     0.10900
C764        C  0.88721573  0.23300492  0.93079076    -0.06200
C765        C  0.91409712  0.23275034  0.90479522    -0.17400
C766        C  0.91282825  0.23217584  0.85844558     0.11000
S767        S  0.82298990  0.23020804  0.94025973    -0.32400
S768        S  0.94831343  0.23426299  0.82807792    -0.32400
H769        H  0.94119720  0.21329365  0.79988378     0.29000
H770        H  0.83198379  0.20953781  0.96822613     0.29000
H771        H  0.83498270  0.23075069  0.84741250     0.19600
H772        H  0.93631716  0.23422056  0.92076035     0.19600
C773        C  0.85553603  0.15091935  0.64488573    -0.06200
C774        C  0.83217953  0.14343339  0.61536581    -0.17400
C775        C  0.83256543  0.11926483  0.59408552     0.10900
C776        C  0.85635966  0.10138833  0.60335020    -0.06200
C777        C  0.88014958  0.10891623  0.63205972    -0.17400
C778        C  0.87986413  0.13326094  0.65322216     0.11000
S779        S  0.80261436  0.11288548  0.55422335    -0.32400
S780        S  0.91004780  0.13969886  0.69255225    -0.32400
H781        H  0.89069304  0.15175663  0.72382861     0.29000
H782        H  0.82103147  0.09776539  0.52574984     0.29000
H783        H  0.81370381  0.15682952  0.60774801     0.19600
H784        H  0.89829185  0.09518335  0.63998302     0.19600
C785        C  0.06348353  0.99593443  0.32944990    -0.06200
C786        C  0.05695953  0.97323276  0.30516073    -0.17400
C787        C  0.03268180  0.97229768  0.27472156     0.10900
C788        C  0.01396903  0.99452944  0.26822141    -0.06200
C789        C  0.02018712  0.01717224  0.29306694    -0.17400
C790        C  0.04474642  0.01818121  0.32325115     0.11000
S791        S  0.02797856  0.94260362  0.24347676    -0.32400
S792        S  0.05175265  0.04872353  0.35114694    -0.32400
H793        H  0.08392843  0.04703971  0.35001979     0.29000
H794        H  0.02065803  0.95516714  0.20320388     0.29000
H795        H  0.07150318  0.95620898  0.30907483     0.19600
H796        H  0.00593852  0.03433223  0.28865542     0.19600
C797        C  0.17102433  0.84576455  0.36874806    -0.06200
C798        C  0.18045872  0.86337520  0.33550133    -0.17400
C799        C  0.18206422  0.89014226  0.34348128     0.10900
C800        C  0.17329796  0.89994739  0.38538419    -0.06200
C801        C  0.16400091  0.88262834  0.41875874    -0.17400
C802        C  0.16292707  0.85577486  0.41125673     0.11000
S803        S  0.19663679  0.91053734  0.29928152    -0.32400
S804        S  0.15104985  0.83599414  0.45785495    -0.32400
H805        H  0.17699025  0.81978035  0.45608600     0.29000
H806        H  0.21279481  0.92757430  0.32739065     0.29000
H807        H  0.18701860  0.85631483  0.30297093     0.19600
H808        H  0.15726000  0.89012319  0.45096271     0.19600
C809        C  0.13963138  0.75382585  0.07980729    -0.06200
C810        C  0.14068151  0.77857435  0.09957105    -0.17400
C811        C  0.13853391  0.78136253  0.14582777     0.10900
C812        C  0.13513882  0.75891379  0.17302973    -0.06200
C813        C  0.13494200  0.73423249  0.15313285    -0.17400
C814        C  0.13796767  0.73140771  0.10732610     0.11000
S815        S  0.13888181  0.81407562  0.16777963    -0.32400
S816        S  0.14021980  0.69849066  0.08615506    -0.32400
H817        H  0.15820754  0.70491110  0.04883701     0.29000
H818        H  0.11957686  0.80857303  0.20409754     0.29000
H819        H  0.14136331  0.79589842  0.07881794     0.19600
H820        H  0.13404337  0.71680837  0.17365759     0.19600
C821        C  0.98767499  0.99874423  0.02997140    -0.06200
C822        C  0.00324719  0.02242571  0.02247078    -0.17400
C823        C  0.02254940  0.02581794  0.98586610     0.10900
C824        C  0.02625117  0.00517252  0.95564461    -0.06200
C825        C  0.01023892  0.98175181  0.96225012    -0.17400
C826        C  0.99111529  0.97822490  0.99904533     0.11000
S827        S  0.04216421  0.05664451  0.98025777    -0.32400
S828        S  0.97330226  0.94669872  0.00556851    -0.32400
H829        H  0.97886566  0.94505671  0.05155317     0.29000
H830        H  0.06882625  0.04678046  0.96013179     0.29000
H831        H  0.00058959  0.03845463  0.04556283     0.19600
H832        H  0.01343297  0.96575332  0.93917304     0.19600
C833        C  0.95556374  0.00198140  0.66170455    -0.06200
C834        C  0.97111186  0.02524432  0.67151936    -0.17400
C835        C  0.99637181  0.02554800  0.70062934     0.10900
C836        C  0.00610597  0.00209622  0.72173101    -0.06200
C837        C  0.99102016  0.97875171  0.71030928    -0.17400
C838        C  0.96639508  0.97839859  0.68043676     0.11000
S839        S  0.01545677  0.05638182  0.70817588    -0.32400
S840        S  0.95005722  0.94702997  0.66703849    -0.32400
H841        H  0.94120996  0.95364575  0.62347899     0.29000
H842        H  0.04506972  0.04580597  0.70331958     0.29000
H843        H  0.96321305  0.04342493  0.65694116     0.19600
H844        H  0.99834632  0.96041274  0.72490334     0.19600
C845        C  0.13926678  0.98614948  0.67030648    -0.06200
C846        C  0.13718601  0.01020845  0.64810521    -0.17400
C847        C  0.13567603  0.01150407  0.60172290     0.10900
C848        C  0.13557409  0.98816610  0.57672210    -0.06200
C849        C  0.13823026  0.96414546  0.59905494    -0.17400
C850        C  0.14028013  0.96289961  0.64532368     0.11000
S851        S  0.13514865  0.04350796  0.57661613    -0.32400
S852        S  0.14470732  0.93111111  0.67050998    -0.32400
H853        H  0.16080075  0.93991718  0.70808610     0.29000
H854        H  0.15777013  0.03773683  0.54472884     0.29000
H855        H  0.13591043  0.02813761  0.66709175     0.19600
H856        H  0.13942123  0.94617912  0.58017104     0.19600
C857        C  0.09491470  0.89851510  0.86504460    -0.06200
C858        C  0.11649090  0.88143277  0.84657849    -0.17400
C859        C  0.11884742  0.85562444  0.86162065     0.10900
C860        C  0.09928607  0.84678871  0.89607778    -0.06200
C861        C  0.07737016  0.86386913  0.91390638    -0.17400
C862        C  0.07522454  0.88972746  0.89908649     0.11000
S863        S  0.14652496  0.83482290  0.83457148    -0.32400
S864        S  0.04701817  0.91137411  0.92320763    -0.32400
H865        H  0.03560790  0.89373538  0.95508923     0.29000
H866        H  0.12757887  0.81261760  0.83357817     0.29000
H867        H  0.13181808  0.88833776  0.82072288     0.19600
H868        H  0.06204751  0.85690629  0.93967519     0.19600
C869        C  0.69983360  0.24949446  0.83441593    -0.06200
C870        C  0.70015578  0.23526328  0.79437668    -0.17400
C871        C  0.72526941  0.23583164  0.76523222     0.10900
C872        C  0.75156182  0.25051118  0.77646857    -0.06200
C873        C  0.75132891  0.26498768  0.81609498    -0.17400
C874        C  0.72584616  0.26496574  0.84469326     0.11000
S875        S  0.72259250  0.21858477  0.71293447    -0.32400
S876        S  0.72798184  0.28576915  0.89272603    -0.32400
H877        H  0.69932520  0.29752803  0.88465763     0.29000
H878        H  0.69182062  0.21070436  0.71686361     0.29000
H879        H  0.68049752  0.22351236  0.78560729     0.19600
H880        H  0.77122998  0.27650780  0.82493742     0.19600
C881        C  0.60058374  0.39275231  0.86762437    -0.06200
C882        C  0.62028016  0.38515018  0.90250140    -0.17400
C883        C  0.62011805  0.35976630  0.91967013     0.10900
C884        C  0.60043904  0.34096383  0.90095037    -0.06200
C885        C  0.58109084  0.34832622  0.86571220    -0.17400
C886        C  0.58103601  0.37376622  0.84873440     0.11000
S887        S  0.64400784  0.35323951  0.96732146    -0.32400
S888        S  0.55437212  0.38078130  0.80463287    -0.32400
H889        H  0.57768923  0.38798404  0.77464786     0.29000
H890        H  0.62245737  0.33719080  0.98897673     0.29000
H891        H  0.63534368  0.39934757  0.91772193     0.19600
H892        H  0.56602134  0.33400959  0.85079652     0.19600
C893        C  0.77920714  0.24802109  0.54859655    -0.06200
C894        C  0.77348777  0.27111442  0.52505498    -0.17400
C895        C  0.75255415  0.27166986  0.49007289     0.10900
C896        C  0.73766922  0.24836933  0.47708746    -0.06200
C897        C  0.74288743  0.22535411  0.50107858    -0.17400
C898        C  0.76369524  0.22482139  0.53629961     0.11000
S899        S  0.74479263  0.30303003  0.46495082    -0.32400
S900        S  0.77074153  0.19356127  0.56204152    -0.32400
H901        H  0.80264196  0.19723034  0.56512273     0.29000
H902        H  0.71335972  0.29836581  0.45805365     0.29000
H903        H  0.78470799  0.28906601  0.53484744     0.19600
H904        H  0.73168654  0.20741711  0.49112120     0.19600
C905        C  0.82066497  0.24560994  0.18185690    -0.06200
C906        C  0.82231162  0.25854647  0.22313365    -0.17400
C907        C  0.79826819  0.25767227  0.25405080     0.10900
C908        C  0.77125197  0.24379825  0.24366048    -0.06200
C909        C  0.76939008  0.23084783  0.20263034    -0.17400
C910        C  0.79362997  0.23139621  0.17195741     0.11000
S911        S  0.80321761  0.27342908  0.30736384    -0.32400
S912        S  0.78826847  0.21333201  0.12132213    -0.32400
H913        H  0.81484167  0.19816988  0.12768822     0.29000
H914        H  0.83270913  0.28360306  0.29976546     0.29000
H915        H  0.84273700  0.26933514  0.23163671     0.19600
H916        H  0.74871527  0.22031064  0.19414482     0.19600
C917        C  0.63599655  0.25200606  0.17816515    -0.06200
C918        C  0.63253365  0.22754984  0.15810240    -0.17400
C919        C  0.63293683  0.22477627  0.11225791     0.10900
C920        C  0.63505535  0.24720227  0.08489881    -0.06200
C921        C  0.63814946  0.27187121  0.10474751    -0.17400
C922        C  0.63925380  0.27445222  0.15114663     0.11000
S923        S  0.63196520  0.19179838  0.09116507    -0.32400
S924        S  0.64601130  0.30651493  0.17355412    -0.32400
H925        H  0.66658940  0.29817306  0.20665526     0.29000
H926        H  0.65133353  0.19685743  0.05470660     0.29000
H927        H  0.63095300  0.21012233  0.17855017     0.19600
H928        H  0.63948134  0.28920278  0.08409329     0.19600
C929        C  0.63505477  0.48397809  0.58065186    -0.06200
C930        C  0.63213104  0.50745688  0.60424518    -0.17400
C931        C  0.63238598  0.50788347  0.65080517     0.10900
C932        C  0.63602606  0.48429275  0.67483073    -0.06200
C933        C  0.63876882  0.46079758  0.65129880    -0.17400
C934        C  0.63837996  0.46035529  0.60475335     0.11000
S935        S  0.62711072  0.53914207  0.67728175    -0.32400
S936        S  0.64136567  0.42890611  0.57827045    -0.32400
H937        H  0.62276806  0.43541683  0.54168614     0.29000
H938        H  0.60864062  0.53004594  0.71232597     0.29000
H939        H  0.63023245  0.52575534  0.58625566     0.19600
H940        H  0.64054579  0.44253399  0.66941637     0.19600
C941        C  0.67134004  0.40178085  0.38214792    -0.06200
C942        C  0.69953801  0.38887083  0.37891937    -0.17400
C943        C  0.70140604  0.36318404  0.36350539     0.10900
C944        C  0.67412471  0.34925484  0.35333134    -0.06200
C945        C  0.64591985  0.36257404  0.35602118    -0.17400
C946        C  0.64426909  0.38856720  0.36998967     0.11000
S947        S  0.73947563  0.35022968  0.35555360    -0.32400
S948        S  0.60682120  0.40350107  0.37280610    -0.32400
H949        H  0.61328910  0.41975904  0.40918429     0.29000
H950        H  0.73287660  0.33978172  0.31340524     0.29000
H951        H  0.72048438  0.39932188  0.38661316     0.19600
H952        H  0.62473638  0.35253316  0.34827769     0.19600
C953        C  0.89612891  0.85170521  0.58162755    -0.06200
C954        C  0.87901961  0.86062687  0.54509152    -0.17400
C955        C  0.86703533  0.88598191  0.54353682     0.10900
C956        C  0.87307452  0.90357387  0.57877017    -0.06200
C957        C  0.89045939  0.89455271  0.61518913    -0.17400
C958        C  0.90213470  0.86910396  0.61686990     0.11000
S959        S  0.84300034  0.89385010  0.49665933    -0.32400
S960        S  0.92570882  0.86054853  0.66393954    -0.32400
H961        H  0.94622299  0.84490665  0.63959766     0.29000
H962        H  0.81993636  0.90543906  0.52277237     0.29000
H963        H  0.87377684  0.84732112  0.51816849     0.19600
H964        H  0.89581413  0.90764068  0.64233563     0.19600
C965        C  0.98546978  0.75249371  0.71928887    -0.06200
C966        C  0.99129844  0.77534937  0.74325820    -0.17400
C967        C  0.01144936  0.77516702  0.77934377     0.10900
C968        C  0.02536297  0.75140674  0.79263607    -0.06200
C969        C  0.01931899  0.72857200  0.76886600    -0.17400
C970        C  0.99923042  0.72875196  0.73289986     0.11000
S971        S  0.01987820  0.80613247  0.80503970    -0.32400
S972        S  0.99096142  0.69773761  0.70742269    -0.32400
H973        H  0.95966838  0.70308491  0.70047234     0.29000
H974        H  0.05125454  0.80094247  0.81155470     0.29000
H975        H  0.98103942  0.79363426  0.73275057     0.19600
H976        H  0.02964883  0.71027713  0.77919527     0.19600
C977        C  0.01247686  0.75298782  0.47744934    -0.06200
C978        C  0.02943466  0.77571423  0.46871880    -0.17400
C979        C  0.05410529  0.77555210  0.43884583     0.10900
C980        C  0.06226485  0.75216142  0.41696856    -0.06200
C981        C  0.04470030  0.72968051  0.42426977    -0.17400
C982        C  0.01983140  0.72987734  0.45386512     0.11000
S983        S  0.07446453  0.80581291  0.43029075    -0.32400
S984        S  0.99797028  0.70018914  0.45908478    -0.32400
H985        H  0.96945337  0.71294650  0.46104099     0.29000
H986        H  0.08401289  0.80049800  0.38658224     0.29000
H987        H  0.02373832  0.79366914  0.48581871     0.19600
H988        H  0.05082370  0.71168516  0.40758582     0.19600
C989        C  0.89131345  0.40219049  0.67850578    -0.06200
C990        C  0.86761248  0.39367753  0.70686964    -0.17400
C991        C  0.85748953  0.36767161  0.70722238     0.10900
C992        C  0.87162102  0.34906298  0.67914973    -0.06200
C993        C  0.89523730  0.35755177  0.65063567    -0.17400
C994        C  0.90498230  0.38370906  0.64968888     0.11000
S995        S  0.82552607  0.35993187  0.74294555    -0.32400
S996        S  0.93402186  0.39228299  0.60958507    -0.32400
H997        H  0.91967391  0.41564730  0.59628133     0.29000
H998        H  0.81110451  0.34336031  0.71217693     0.29000
H999        H  0.85656319  0.40750878  0.72886023     0.19600
H1000       H  0.90624905  0.34366628  0.62870807     0.19600
C1001       C  0.81394785  0.50706560  0.58431881    -0.06200
C1002       C  0.79074967  0.48846262  0.59028071    -0.17400
C1003       C  0.76542789  0.48740243  0.56163656     0.10900
C1004       C  0.76339474  0.50481832  0.52493743    -0.06200
C1005       C  0.78589120  0.52419609  0.52024770    -0.17400
C1006       C  0.81072143  0.52576242  0.54970023     0.11000
S1007       S  0.73600257  0.46395434  0.57494317    -0.32400
S1008       S  0.83704479  0.55254345  0.54176009    -0.32400
H1009       H  0.84276232  0.55622347  0.58733922     0.29000
H1010       H  0.71174951  0.48135404  0.56624545     0.29000
H1011       H  0.79256294  0.47435233  0.61700556     0.19600
H1012       H  0.78429130  0.53813639  0.49324195     0.19600
C1013       C  0.91812495  0.60074656  0.63971617    -0.06200
C1014       C  0.89896537  0.60881065  0.60456988    -0.17400
C1015       C  0.89882911  0.63458084  0.58919420     0.10900
C1016       C  0.91805951  0.65317167  0.60953305    -0.06200
C1017       C  0.93701935  0.64528979  0.64477602    -0.17400
C1018       C  0.93699866  0.61957562  0.66047321     0.11000
S1019       S  0.87483568  0.64202057  0.54203164    -0.32400
S1020       S  0.96236955  0.61214637  0.70594646    -0.32400
H1021       H  0.93814360  0.60502762  0.73444765     0.29000
H1022       H  0.89609720  0.65893668  0.52182786     0.29000
H1023       H  0.88429556  0.59478489  0.58812444     0.19600
H1024       H  0.95163559  0.65943664  0.66089480     0.19600
C1025       C  0.87309533  0.40038648  0.08091285    -0.06200
C1026       C  0.86698353  0.38555666  0.11908978    -0.17400
C1027       C  0.87748918  0.35977452  0.12328201     0.10900
C1028       C  0.89434146  0.34804038  0.08806223    -0.06200
C1029       C  0.89946189  0.36287889  0.04927292    -0.17400
C1030       C  0.88887698  0.38858714  0.04519370     0.11000
S1031       S  0.86798585  0.34314248  0.17427536    -0.32400
S1032       S  0.89535490  0.40499243  0.99283612    -0.32400
H1033       H  0.86817879  0.41980860  0.99387963     0.29000
H1034       H  0.89889868  0.34075964  0.18710872     0.29000
H1035       H  0.85482863  0.39443985  0.14662459     0.19600
H1036       H  0.91164315  0.35437129  0.02144899     0.19600
C1037       C  0.78518364  0.49914810  0.22427612    -0.06200
C1038       C  0.77007514  0.47699956  0.24047830    -0.17400
C1039       C  0.75025917  0.47862049  0.27677412     0.10900
C1040       C  0.74433132  0.50320276  0.29654947    -0.06200
C1041       C  0.76020010  0.52523088  0.28143214    -0.17400
C1042       C  0.78026555  0.52358726  0.24528449     0.11000
S1043       S  0.73433583  0.44833819  0.29724367    -0.32400
S1044       S  0.79707502  0.55376802  0.22601730    -0.32400
H1045       H  0.79268736  0.54840583  0.18061788     0.29000
H1046       H  0.73516362  0.45547947  0.34236143     0.29000
H1047       H  0.77427607  0.45814115  0.22538805     0.19600
H1048       H  0.75581167  0.54407592  0.29643866     0.19600
C1049       C  0.75067454  0.49217608  0.99207958    -0.06200
C1050       C  0.75179150  0.50573123  0.95128507    -0.17400
C1051       C  0.72714386  0.50558777  0.92123993     0.10900
C1052       C  0.70031950  0.49113667  0.93122297    -0.06200
C1053       C  0.69925142  0.47753337  0.97208721    -0.17400
C1054       C  0.72390913  0.47778454  0.00217649     0.11000
S1055       S  0.73093642  0.52556610  0.87216007    -0.32400
S1056       S  0.71899826  0.46086153  0.05417399    -0.32400
H1057       H  0.74227912  0.44267278  0.04470662     0.29000
H1058       H  0.70177893  0.53707915  0.87663582     0.29000
H1059       H  0.77203464  0.51698663  0.94285889     0.19600
H1060       H  0.67891724  0.46650648  0.98088707     0.19600
C1061       C  0.88614455  0.51005024  0.92610884    -0.06200
C1062       C  0.88836865  0.48638873  0.90299066    -0.17400
C1063       C  0.88725726  0.48576062  0.85655728     0.10900
C1064       C  0.88304970  0.50926155  0.83251257    -0.06200
C1065       C  0.88146754  0.53294857  0.85562507    -0.17400
C1066       C  0.88320617  0.53363167  0.90193431     0.11000
S1067       S  0.89251867  0.45450151  0.83010928    -0.32400
S1068       S  0.88228186  0.56526757  0.92810659    -0.32400
H1069       H  0.90039830  0.55806719  0.96483396     0.29000
H1070       H  0.91201449  0.46372716  0.79629192     0.29000
H1071       H  0.89026780  0.46817278  0.92124225     0.19600
H1072       H  0.87963956  0.55115157  0.83732355     0.19600
C1073       C  0.87252550  0.84685234  0.17678094    -0.06200
C1074       C  0.86050257  0.86288154  0.14308595    -0.17400
C1075       C  0.86975694  0.88899281  0.13835964     0.10900
C1076       C  0.89214646  0.89946780  0.16748371    -0.06200
C1077       C  0.90397448  0.88339370  0.20123226    -0.17400
C1078       C  0.89426315  0.85756843  0.20655311     0.11000
S1079       S  0.85112236  0.90796314  0.09563541    -0.32400
S1080       S  0.90971579  0.83982129  0.25333385    -0.32400
H1081       H  0.88190621  0.82739554  0.26393838     0.29000
H1082       H  0.84637391  0.92991534  0.12280714     0.29000
H1083       H  0.84381555  0.85499687  0.12009951     0.19600
H1084       H  0.92077367  0.89111167  0.22421601     0.19600
C1085       C  0.00341621  0.74645190  0.03139979    -0.06200
C1086       C  0.98455435  0.72436506  0.03499618    -0.17400
C1087       C  0.95939338  0.72390661  0.06398190     0.10900
C1088       C  0.95254349  0.74605935  0.09013599    -0.06200
C1089       C  0.97208766  0.76774742  0.08811629    -0.17400
C1090       C  0.99751312  0.76811023  0.05941479     0.11000
S1091       S  0.93676009  0.69443881  0.06600552    -0.32400
S1092       S  0.02184725  0.79653454  0.06086714    -0.32400
H1093       H  0.04941835  0.78264920  0.05509852     0.29000
H1094       H  0.92801005  0.69686204  0.11082182     0.29000
H1095       H  0.98911549  0.70744833  0.01445870     0.19600
H1096       H  0.96711102  0.78476019  0.10823907     0.19600
C1097       C  0.87760573  0.73832623  0.33283158    -0.06200
C1098       C  0.88641224  0.71620677  0.35724906    -0.17400
C1099       C  0.88721976  0.71680758  0.40379570     0.10900
C1100       C  0.87811442  0.73982728  0.42615794    -0.06200
C1101       C  0.86782657  0.76133691  0.40155769    -0.17400
C1102       C  0.86688436  0.76065817  0.35537788     0.11000
S1103       S  0.90139686  0.68809983  0.43204177    -0.32400
S1104       S  0.85066565  0.78860046  0.32725084    -0.32400
H1105       H  0.83495452  0.77415904  0.29477182     0.29000
H1106       H  0.91563094  0.70102503  0.46752373     0.29000
H1107       H  0.89346309  0.69866312  0.33993242     0.19600
H1108       H  0.86078513  0.77899472  0.41857450     0.19600
C1109       C  0.84959311  0.65143899  0.13658602    -0.06200
C1110       C  0.84673700  0.64404040  0.09185799    -0.17400
C1111       C  0.84810534  0.61784084  0.07923343     0.10900
C1112       C  0.85126167  0.59831813  0.11227224    -0.06200
C1113       C  0.85497469  0.60593445  0.15685735    -0.17400
C1114       C  0.85486216  0.63211781  0.16916686     0.11000
S1115       S  0.84696662  0.61096836  0.02055832    -0.32400
S1116       S  0.86299791  0.63947250  0.22656384    -0.32400
H1117       H  0.88139371  0.66135777  0.21706488     0.29000
H1118       H  0.87061441  0.59228730  0.02247936     0.29000
H1119       H  0.84353454  0.65882642  0.06638624     0.19600
H1120       H  0.85812161  0.59136467  0.18267954     0.19600
C1121       C  0.64886899  0.64146703  0.83949372    -0.06200
C1122       C  0.62331949  0.63344326  0.86458353    -0.17400
C1123       C  0.61316067  0.60746399  0.86420913     0.10900
C1124       C  0.62820823  0.58893187  0.83693933    -0.06200
C1125       C  0.65432938  0.59692990  0.81295364    -0.17400
C1126       C  0.66505176  0.62264860  0.81454847     0.11000
S1127       S  0.58178796  0.59922971  0.90066587    -0.32400
S1128       S  0.70021740  0.62986993  0.78542354    -0.32400
H1129       H  0.71104383  0.64786178  0.81697392     0.29000
H1130       H  0.59521275  0.57582885  0.91573102     0.29000
H1131       H  0.61099574  0.64757982  0.88452199     0.19600
H1132       H  0.66674466  0.58298093  0.79277463     0.19600
C1133       C  0.73782564  0.74173463  0.96889035    -0.06200
C1134       C  0.72560240  0.74449609  0.01180017    -0.17400
C1135       C  0.74466709  0.74911767  0.04839210     0.10900
C1136       C  0.77663633  0.75190839  0.04179892    -0.06200
C1137       C  0.78871211  0.74873715  0.99887023    -0.17400
C1138       C  0.76988643  0.74319103  0.96275617     0.11000
S1139       S  0.72691163  0.75002030  0.10248477    -0.32400
S1140       S  0.78843645  0.73723716  0.91006466    -0.32400
H1141       H  0.76725372  0.71834304  0.89574807     0.29000
H1142       H  0.74938448  0.73442096  0.12310887     0.29000
H1143       H  0.70104897  0.74328759  0.01681307     0.19600
H1144       H  0.81322761  0.75003663  0.99346409     0.19600
C1145       C  0.81568744  0.74765865  0.67304576    -0.06200
C1146       C  0.80086726  0.72342309  0.67708845    -0.17400
C1147       C  0.77638061  0.71969040  0.70682993     0.10900
C1148       C  0.76530546  0.74096339  0.73237773    -0.06200
C1149       C  0.78000772  0.76531172  0.72753303    -0.17400
C1150       C  0.80470977  0.76889788  0.69836785     0.11000
S1151       S  0.76182190  0.68693470  0.71224826    -0.32400
S1152       S  0.82045511  0.80137830  0.69400444    -0.32400
H1153       H  0.82716267  0.79982833  0.64833495     0.29000
H1154       H  0.76162968  0.68739848  0.75902777     0.29000
H1155       H  0.80942525  0.70684631  0.65849582     0.19600
H1156       H  0.77185633  0.78205894  0.74603243     0.19600
C1157       C  0.64227299  0.09126869  0.92048868    -0.06200
C1158       C  0.61540067  0.09865985  0.94320385    -0.17400
C1159       C  0.60421462  0.12424096  0.94163898     0.10900
C1160       C  0.62043017  0.14351389  0.91756109    -0.06200
C1161       C  0.64694675  0.13621408  0.89414724    -0.17400
C1162       C  0.65812437  0.11053562  0.89555481     0.11000
S1163       S  0.56831191  0.13063266  0.96941946    -0.32400
S1164       S  0.69199222  0.10360380  0.86347767    -0.32400
H1165       H  0.70956849  0.09765487  0.90139664     0.29000
H1166       H  0.55744010  0.14834189  0.93721970     0.29000
H1167       H  0.60258705  0.08427594  0.96204221     0.19600
H1168       H  0.65956720  0.15079819  0.87546452     0.19600
C1169       C  0.74002335  0.00338073  0.78284325    -0.06200
C1170       C  0.75063038  0.97940562  0.76626862    -0.17400
C1171       C  0.77136528  0.97832107  0.73088406     0.10900
C1172       C  0.78208539  0.00175566  0.71167611    -0.06200
C1173       C  0.77163003  0.02575604  0.72837223    -0.17400
C1174       C  0.75070306  0.02683761  0.76360568     0.11000
S1175       S  0.78215491  0.94649498  0.71066302    -0.32400
S1176       S  0.73766613  0.05860440  0.78111951    -0.32400
H1177       H  0.70741718  0.05086721  0.79059604     0.29000
H1178       H  0.78266325  0.95360900  0.66547345     0.29000
H1179       H  0.74249222  0.96130613  0.78084595     0.19600
H1180       H  0.77962356  0.04382502  0.71352186     0.19600
C1181       C  0.81770188  0.99907642  0.07120086    -0.06200
C1182       C  0.81272734  0.97686390  0.04483570    -0.17400
C1183       C  0.78853840  0.97557645  0.01439587     0.10900
C1184       C  0.76780980  0.99672811  0.01051921    -0.06200
C1185       C  0.77272458  0.01901889  0.03679835    -0.17400
C1186       C  0.79751340  0.02055811  0.06651363     0.11000
S1187       S  0.78650058  0.94684789  0.98000162    -0.32400
S1188       S  0.80290703  0.05089725  0.09562115    -0.32400
H1189       H  0.83491362  0.05144502  0.08972127     0.29000
H1190       H  0.77784340  0.96042432  0.94125108     0.29000
H1191       H  0.82826937  0.96040073  0.04730117     0.19600
H1192       H  0.75715473  0.03545054  0.03412470     0.19600
C1193       C  0.67025651  0.89369735  0.88349448    -0.06200
C1194       C  0.64978800  0.88556271  0.85013126    -0.17400
C1195       C  0.64907140  0.85973036  0.83534210     0.10900
C1196       C  0.66882321  0.84110207  0.85481085    -0.06200
C1197       C  0.68939746  0.84919638  0.88798172    -0.17400
C1198       C  0.69022806  0.87506265  0.90265082     0.11000
S1199       S  0.62381965  0.85229070  0.78975706    -0.32400
S1200       S  0.71837625  0.88318532  0.94406835    -0.32400
H1201       H  0.69602097  0.88960674  0.97599075     0.29000
H1202       H  0.64485794  0.83563037  0.76856274     0.29000
H1203       H  0.63453014  0.89960229  0.83462874     0.19600
H1204       H  0.70473587  0.83512497  0.90325594     0.19600
C1205       C  0.64023986  0.59781966  0.42952717    -0.06200
C1206       C  0.65973863  0.61634117  0.40949329    -0.17400
C1207       C  0.65166530  0.64284988  0.40638021     0.10900
C1208       C  0.62339904  0.65169123  0.42417076    -0.06200
C1209       C  0.60365847  0.63328823  0.44348742    -0.17400
C1210       C  0.61182057  0.60684131  0.44714942     0.11000
S1211       S  0.67804885  0.66413196  0.37759156    -0.32400
S1212       S  0.58531698  0.58629547  0.47705832    -0.32400
H1213       H  0.60807496  0.57584538  0.50512537     0.29000
H1214       H  0.65517457  0.67951123  0.35743405     0.29000
H1215       H  0.68134919  0.61011422  0.39523894     0.19600
H1216       H  0.58216133  0.63977371  0.45782003     0.19600
C1217       C  0.70274075  0.75654107  0.33710538    -0.06200
C1218       C  0.72752449  0.73989269  0.34625795    -0.17400
C1219       C  0.75311940  0.73868240  0.31767328     0.10900
C1220       C  0.75368519  0.75403201  0.27827218    -0.06200
C1221       C  0.72984340  0.77190740  0.27092679    -0.17400
C1222       C  0.70485708  0.77365341  0.30004703     0.11000
S1223       S  0.78524301  0.71816209  0.33290596    -0.32400
S1224       S  0.67670687  0.79858801  0.28826898    -0.32400
H1225       H  0.67013253  0.80394965  0.33313582     0.29000
H1226       H  0.77320756  0.70888784  0.37336488     0.29000
H1227       H  0.72635798  0.72722226  0.37503363     0.19600
H1228       H  0.73045902  0.78448034  0.24195206     0.19600
C1229       C  0.62494739  0.75456010  0.58296415    -0.06200
C1230       C  0.62556350  0.77695867  0.60969390    -0.17400
C1231       C  0.62456659  0.77512834  0.65614428     0.10900
C1232       C  0.62344778  0.75029186  0.67678909    -0.06200
C1233       C  0.62136802  0.72799977  0.64984396    -0.17400
C1234       C  0.62138277  0.72987738  0.60348731     0.11000
S1235       S  0.62730074  0.80504469  0.68698315    -0.32400
S1236       S  0.61551355  0.70014455  0.57261588    -0.32400
H1237       H  0.59541617  0.71134360  0.54131078     0.29000
H1238       H  0.60059727  0.80004311  0.71185214     0.29000
H1239       H  0.62705965  0.79606207  0.59424723     0.19600
H1240       H  0.62011912  0.70883165  0.66512197     0.19600
C1241       C  0.61522095  0.09973278  0.33828549    -0.06200
C1242       C  0.62825261  0.10915081  0.37799758    -0.17400
C1243       C  0.64144796  0.13407149  0.38066447     0.10900
C1244       C  0.64179145  0.15053168  0.34283146    -0.06200
C1245       C  0.62786692  0.14158987  0.30363410    -0.17400
C1246       C  0.61406679  0.11692266  0.30116564     0.11000
S1247       S  0.65892293  0.14295665  0.43272939    -0.32400
S1248       S  0.59469774  0.10931377  0.24990723    -0.32400
H1249       H  0.56833649  0.09958482  0.27130984     0.29000
H1250       H  0.68472487  0.15480262  0.41312867     0.29000
H1251       H  0.62933453  0.09664780  0.40705917     0.19600
H1252       H  0.62686532  0.15430653  0.27480420     0.19600
C1253       C  0.75149870  0.00108753  0.47855020    -0.06200
C1254       C  0.74970396  0.98289649  0.44355269    -0.17400
C1255       C  0.72407014  0.98153941  0.41525262     0.10900
C1256       C  0.69912863  0.99899120  0.42110139    -0.06200
C1257       C  0.70106289  0.01731118  0.45575448    -0.17400
C1258       C  0.72667920  0.01876935  0.48386560     0.11000
S1259       S  0.72428681  0.95622621  0.37381654    -0.32400
S1260       S  0.72552854  0.04339789  0.52640161    -0.32400
H1261       H  0.75030103  0.05731230  0.50790390     0.29000
H1262       H  0.69426232  0.94784376  0.38335277     0.29000
H1263       H  0.76836162  0.96926070  0.43831611     0.19600
H1264       H  0.68244642  0.03100727  0.46088616     0.19600
C1265       C  0.63767363  0.99410320  0.16949608    -0.06200
C1266       C  0.63855699  0.96884622  0.15153640    -0.17400
C1267       C  0.63664655  0.96479933  0.10551986     0.10900
C1268       C  0.63392796  0.98644116  0.07641179    -0.06200
C1269       C  0.63333608  0.01165076  0.09439912    -0.17400
C1270       C  0.63581547  0.01574644  0.14014871     0.11000
S1271       S  0.63644677  0.93152334  0.08618490    -0.32400
S1272       S  0.63760168  0.04921072  0.15870219    -0.32400
H1273       H  0.65649535  0.04400720  0.19558551     0.29000
H1274       H  0.61827173  0.93642586  0.04845859     0.29000
H1275       H  0.63912567  0.95206466  0.17354394     0.19600
H1276       H  0.63265004  0.02845655  0.07242237     0.19600
C1277       C  0.60326548  0.90065826  0.35203813    -0.06200
C1278       C  0.58721149  0.88257918  0.32617133    -0.17400
C1279       C  0.58432096  0.85656221  0.33958726     0.10900
C1280       C  0.59789800  0.84819316  0.37990375    -0.06200
C1281       C  0.61388994  0.86631023  0.40595164    -0.17400
C1282       C  0.61658070  0.89246107  0.39259199     0.11000
S1283       S  0.56199316  0.83533308  0.30447837    -0.32400
S1284       S  0.63642448  0.91448454  0.42934463    -0.32400
H1285       H  0.61768451  0.93630108  0.42099087     0.29000
H1286       H  0.54932061  0.82051474  0.33937874     0.29000
H1287       H  0.57632130  0.88892504  0.29560949     0.19600
H1288       H  0.62444790  0.86003243  0.43678330     0.19600
C1289       C  0.48339234  0.99053842  0.52874826    -0.06200
C1290       C  0.49107113  0.01505826  0.51089672    -0.17400
C1291       C  0.51067917  0.01735406  0.47458580     0.10900
C1292       C  0.52363371  0.99469062  0.45613472    -0.06200
C1293       C  0.51549562  0.97005330  0.47309404    -0.17400
C1294       C  0.49525861  0.96771183  0.50903017     0.11000
S1295       S  0.51742277  0.04962540  0.45246741    -0.32400
S1296       S  0.48465834  0.93531687  0.52688366    -0.32400
H1297       H  0.45442385  0.94181731  0.53886900     0.29000
H1298       H  0.51968904  0.04185366  0.40777869     0.29000
H1299       H  0.48166135  0.03268778  0.52539549     0.19600
H1300       H  0.52500106  0.95256066  0.45826296     0.19600
C1301       C  0.51613369  0.99530796  0.76396419    -0.06200
C1302       C  0.53578690  0.97350846  0.76222287    -0.17400
C1303       C  0.56053176  0.97059931  0.79181211     0.10900
C1304       C  0.56639874  0.98997165  0.82422374    -0.06200
C1305       C  0.54629718  0.01122903  0.82717365    -0.17400
C1306       C  0.52165887  0.01427574  0.79761301     0.11000
S1307       S  0.58317935  0.94122890  0.78737744    -0.32400
S1308       S  0.49806195  0.04275466  0.80578366    -0.32400
H1309       H  0.50728547  0.05415358  0.76528018     0.29000
H1310       H  0.58974328  0.93924841  0.83304680     0.29000
H1311       H  0.53186029  0.95845920  0.73765125     0.19600
H1312       H  0.55048453  0.02622025  0.85179042     0.19600
C1313       C  0.31348825  0.00981324  0.57790781    -0.06200
C1314       C  0.28896644  0.99291522  0.58709391    -0.17400
C1315       C  0.26336462  0.99159106  0.55895260     0.10900
C1316       C  0.26249704  0.00662683  0.51924460    -0.06200
C1317       C  0.28606360  0.02472992  0.51159346    -0.17400
C1318       C  0.31103343  0.02687579  0.54076204     0.11000
S1319       S  0.23205026  0.97110267  0.57675099    -0.32400
S1320       S  0.33847299  0.05235263  0.52916929    -0.32400
H1321       H  0.34414859  0.05813001  0.57412134     0.29000
H1322       H  0.20921455  0.98894815  0.56361669     0.29000
H1323       H  0.28989484  0.98033592  0.61600040     0.19600
H1324       H  0.28521019  0.03716993  0.48250110     0.19600
C1325       C  0.48962969  0.25096437  0.72068982    -0.06200
C1326       C  0.50551957  0.22734453  0.72734269    -0.17400
C1327       C  0.52365463  0.22327905  0.76486467     0.10900
C1328       C  0.52658947  0.24347322  0.79628332    -0.06200
C1329       C  0.51032254  0.26690233  0.79005284    -0.17400
C1330       C  0.49224168  0.27100170  0.75251160     0.11000
S1331       S  0.54121595  0.19160012  0.77146837    -0.32400
S1332       S  0.47478919  0.30272301  0.74618124    -0.32400
H1333       H  0.48115805  0.30472842  0.70043344     0.29000
H1334       H  0.53728301  0.19056302  0.81787363     0.29000
H1335       H  0.50316408  0.21155691  0.70367915     0.19600
H1336       H  0.51277300  0.28270050  0.81367497     0.19600
C1337       C  0.51915870  0.25868252  0.48353399    -0.06200
C1338       C  0.53498938  0.23502311  0.47726370    -0.17400
C1339       C  0.55941377  0.23292140  0.44741985     0.10900
C1340       C  0.56927096  0.25509329  0.42328422    -0.06200
C1341       C  0.55325121  0.27865052  0.42833410    -0.17400
C1342       C  0.52868050  0.28082021  0.45841209     0.11000
S1343       S  0.57643627  0.20100413  0.44070459    -0.32400
S1344       S  0.51182522  0.31272384  0.46446561    -0.32400
H1345       H  0.51253884  0.31200152  0.51122260     0.29000
H1346       H  0.58308955  0.20400840  0.39519584     0.29000
H1347       H  0.52790230  0.21761864  0.49504191     0.19600
H1348       H  0.56088870  0.29583627  0.41037813     0.19600
C1349       C  0.42413115  0.10031606  0.63234465    -0.06200
C1350       C  0.40150358  0.10976696  0.60328232    -0.17400
C1351       C  0.40120767  0.13571755  0.58912864     0.10900
C1352       C  0.42395223  0.15312391  0.60457994    -0.06200
C1353       C  0.44684649  0.14360958  0.63330360    -0.17400
C1354       C  0.44701362  0.11759272  0.64763773     0.11000
S1355       S  0.37195674  0.14483551  0.54978921    -0.32400
S1356       S  0.47773395  0.10739118  0.68365744    -0.32400
H1357       H  0.45785239  0.10219138  0.71947476     0.29000
H1358       H  0.39191057  0.16020268  0.52410767     0.29000
H1359       H  0.38393871  0.09668873  0.59094696     0.19600
H1360       H  0.46441107  0.15668805  0.64561537     0.19600
C1361       C  0.28153037  0.98985743  0.21505769    -0.06200
C1362       C  0.28340055  0.01279720  0.24063474    -0.17400
C1363       C  0.26162809  0.01876473  0.27318653     0.10900
C1364       C  0.23771346  0.00095100  0.28202274    -0.06200
C1365       C  0.23608991  0.97783136  0.25677514    -0.17400
C1366       C  0.25773936  0.97198010  0.22400686     0.11000
S1367       S  0.26487537  0.05003041  0.30012728    -0.32400
S1368       S  0.25449733  0.94080812  0.19673425    -0.32400
H1369       H  0.28630222  0.93621826  0.19511992     0.29000
H1370       H  0.23318581  0.05524392  0.29916530     0.29000
H1371       H  0.30134169  0.02681068  0.23411064     0.19600
H1372       H  0.21830668  0.96364612  0.26346246     0.19600
C1373       C  0.45528313  0.99848555  0.15697212    -0.06200
C1374       C  0.47101994  0.97538585  0.16715649    -0.17400
C1375       C  0.49590282  0.97532965  0.19671255     0.10900
C1376       C  0.50505531  0.99890397  0.21767031    -0.06200
C1377       C  0.49005242  0.02217308  0.20558249    -0.17400
C1378       C  0.46553641  0.02221883  0.17550230     0.11000
S1379       S  0.51512668  0.94456060  0.20534512    -0.32400
S1380       S  0.44798936  0.05321267  0.16238604    -0.32400
H1381       H  0.43806752  0.04626746  0.11955386     0.29000
H1382       H  0.54478049  0.95533807  0.20353049     0.29000
H1383       H  0.46333839  0.95710634  0.15291834     0.19600
H1384       H  0.49706144  0.04050094  0.22030211     0.19600
C1385       C  0.25395402  0.98885545  0.97533179    -0.06200
C1386       C  0.22865617  0.97305287  0.98556670    -0.17400
C1387       C  0.20296291  0.97201434  0.95768744     0.10900
C1388       C  0.20171140  0.98783169  0.91890070    -0.06200
C1389       C  0.22770741  0.00248892  0.90731721    -0.17400
C1390       C  0.25387560  0.00296339  0.93461040     0.11000
S1391       S  0.17306927  0.94939731  0.97305430    -0.32400
S1392       S  0.28725550  0.02092018  0.91593277    -0.32400
H1393       H  0.27520323  0.02958103  0.87511422     0.29000
H1394       H  0.16673367  0.94169474  0.92914305     0.29000
H1395       H  0.22874872  0.96148992  0.01581469     0.19600
H1396       H  0.22723391  0.01412445  0.87720651     0.19600
C1397       C  0.38240124  0.01217629  0.82512971    -0.06200
C1398       C  0.37620951  0.98798828  0.84522384    -0.17400
C1399       C  0.37627376  0.98512272  0.89140800     0.10900
C1400       C  0.38343730  0.00675773  0.91849769    -0.06200
C1401       C  0.38908831  0.03105562  0.89851508    -0.17400
C1402       C  0.38844642  0.03405628  0.85233109     0.11000
S1403       S  0.36559791  0.95367730  0.91364145    -0.32400
S1404       S  0.39458298  0.06644622  0.83037704    -0.32400
H1405       H  0.37517395  0.06330907  0.79344563     0.29000
H1406       H  0.34587705  0.96375918  0.94643920     0.29000
H1407       H  0.37182001  0.97100341  0.82478686     0.19600
H1408       H  0.39332057  0.04798617  0.91915510     0.19600
C1409       C  0.50161145  0.23840579  0.02640799    -0.06200
C1410       C  0.50017545  0.25722095  0.06021877    -0.17400
C1411       C  0.47618641  0.25736750  0.09132101     0.10900
C1412       C  0.45226599  0.23886342  0.08788643    -0.06200
C1413       C  0.45397454  0.21990689  0.05418620    -0.17400
C1414       C  0.47826296  0.21942445  0.02368284     0.11000
S1415       S  0.47654760  0.28248779  0.13293963    -0.32400
S1416       S  0.47725489  0.19492102  0.98077279    -0.32400
H1417       H  0.48996795  0.21078999  0.94727290     0.29000
H1418       H  0.47673180  0.26452883  0.16840441     0.29000
H1419       H  0.51815604  0.27172033  0.06281989     0.19600
H1420       H  0.43580125  0.20563252  0.05093058     0.19600
C1421       C  0.38020655  0.23643368  0.33508977    -0.06200
C1422       C  0.38258111  0.21415768  0.36209489    -0.17400
C1423       C  0.38379481  0.21629757  0.40847217     0.10900
C1424       C  0.38136622  0.24118934  0.42845338    -0.06200
C1425       C  0.37787558  0.26327158  0.40124103    -0.17400
C1426       C  0.37691817  0.26118610  0.35513224     0.11000
S1427       S  0.39060051  0.18683861  0.43967641    -0.32400
S1428       S  0.36995546  0.29079588  0.32401098    -0.32400
H1429       H  0.34877075  0.27950284  0.29451742     0.29000
H1430       H  0.41315290  0.19782268  0.46729322     0.29000
H1431       H  0.38435947  0.19505350  0.34689231     0.19600
H1432       H  0.37600794  0.28246465  0.41612714     0.19600
C1433       C  0.33992759  0.14563568  0.13608813    -0.06200
C1434       C  0.33497070  0.12685950  0.16940453    -0.17400
C1435       C  0.33342891  0.10031753  0.15935600     0.10900
C1436       C  0.33845041  0.09191173  0.11521980    -0.06200
C1437       C  0.34218576  0.11059531  0.08160438    -0.17400
C1438       C  0.34223365  0.13723339  0.09120564     0.11000
S1439       S  0.32352385  0.07842608  0.20408407    -0.32400
S1440       S  0.34424587  0.15904625  0.04410436    -0.32400
H1441       H  0.31993547  0.17485226  0.05900845     0.29000
H1442       H  0.30482651  0.06241352  0.17754717     0.29000
H1443       H  0.33203925  0.13282302  0.20364545     0.19600
H1444       H  0.34523346  0.10442083  0.04747389     0.19600
C1445       C  0.15065501  0.14602670  0.83342561    -0.06200
C1446       C  0.13020004  0.13593464  0.86539305    -0.17400
C1447       C  0.11990685  0.11001896  0.86375762     0.10900
C1448       C  0.12949967  0.09361605  0.82872221    -0.06200
C1449       C  0.15021000  0.10347066  0.79714270    -0.17400
C1450       C  0.16109473  0.12916088  0.79924577     0.11000
S1451       S  0.09564292  0.09882879  0.90842114    -0.32400
S1452       S  0.18899003  0.13861711  0.75796251    -0.32400
H1453       H  0.20809816  0.15158317  0.78841317     0.29000
H1454       H  0.10885395  0.07381181  0.91124806     0.29000
H1455       H  0.12200739  0.14834295  0.89201246     0.19600
H1456       H  0.15822033  0.09091097  0.77058448     0.19600
C1457       C  0.23631717  0.24669977  0.97421429    -0.06200
C1458       C  0.24402026  0.27136141  0.99120233    -0.17400
C1459       C  0.26444438  0.27393311  0.02664875     0.10900
C1460       C  0.27721805  0.25133437  0.04594548    -0.06200
C1461       C  0.26907326  0.22664369  0.02947960    -0.17400
C1462       C  0.24896648  0.22407210  0.99368477     0.11000
S1463       S  0.27439101  0.30647398  0.04411822    -0.32400
S1464       S  0.24168991  0.19160735  0.97316735    -0.32400
H1465       H  0.24113211  0.19868742  0.92796699     0.29000
H1466       H  0.30535814  0.30085039  0.05305945     0.29000
H1467       H  0.23446458  0.28880854  0.97615322     0.19600
H1468       H  0.27884864  0.20920304  0.04423321     0.19600
C1469       C  0.01874952  0.25264598  0.98922683    -0.06200
C1470       C  0.03244667  0.22829311  0.98024429    -0.17400
C1471       C  0.05630115  0.22569167  0.94939305     0.10900
C1472       C  0.06757353  0.24796657  0.92699550    -0.06200
C1473       C  0.05352307  0.27218563  0.93472787    -0.17400
C1474       C  0.02968267  0.27488222  0.96576300     0.11000
S1475       S  0.07053687  0.19319361  0.93884601    -0.32400
S1476       S  0.01561401  0.30748994  0.97510995    -0.32400
H1477       H  0.01632035  0.30516421  0.02172397     0.29000
H1478       H  0.07776828  0.19761581  0.89386461     0.29000
H1479       H  0.02404772  0.21081948  0.99659890     0.19600
H1480       H  0.06222376  0.28945486  0.91803387     0.19600
C1481       C  0.27028004  0.24493676  0.74069985    -0.06200
C1482       C  0.28356503  0.26914739  0.72982789    -0.17400
C1483       C  0.30794558  0.27116980  0.69955831     0.10900
C1484       C  0.32012905  0.24849559  0.67941553    -0.06200
C1485       C  0.30702866  0.22423691  0.69010095    -0.17400
C1486       C  0.28281494  0.22213018  0.72089418     0.11000
S1487       S  0.32159077  0.30352520  0.68667940    -0.32400
S1488       S  0.27040487  0.18961783  0.73525880    -0.32400
H1489       H  0.26752716  0.19489912  0.78096067     0.29000
H1490       H  0.32916246  0.29823908  0.64214533     0.29000
H1491       H  0.27427740  0.28690770  0.74397396     0.19600
H1492       H  0.31663995  0.20662411  0.67583960     0.19600
C1493       C  0.14627957  0.59861283  0.92008412    -0.06200
C1494       C  0.13034387  0.60810384  0.88258340    -0.17400
C1495       C  0.11781808  0.63329776  0.88134617     0.10900
C1496       C  0.12137788  0.65001866  0.91821228    -0.06200
C1497       C  0.13739432  0.64075377  0.95558399    -0.17400
C1498       C  0.15024032  0.61567215  0.95674093     0.11000
S1499       S  0.09619094  0.64228484  0.83259467    -0.32400
S1500       S  0.17221574  0.60740901  0.00551884    -0.32400
H1501       H  0.19708933  0.59737283  0.98107652     0.29000
H1502       H  0.07341254  0.65601664  0.85605091     0.29000
H1503       H  0.12663556  0.59553670  0.85423265     0.19600
H1504       H  0.14090847  0.65353785  0.98375466     0.19600
C1505       C  0.06377811  0.49923680  0.83519423    -0.06200
C1506       C  0.04583125  0.47662092  0.83072419    -0.17400
C1507       C  0.02055418  0.47584202  0.80163599     0.10900
C1508       C  0.01331827  0.49791968  0.77499398    -0.06200
C1509       C  0.03066767  0.52078218  0.78095731    -0.17400
C1510       C  0.05520541  0.52182285  0.81095250     0.11000
S1511       S  0.99779528  0.44652147  0.80167859    -0.32400
S1512       S  0.07400466  0.55294384  0.81772899    -0.32400
H1513       H  0.08045994  0.54960226  0.86321492     0.29000
H1514       H  0.96957879  0.45983482  0.80085659     0.29000
H1515       H  0.05173338  0.45929533  0.84965995     0.19600
H1516       H  0.02500462  0.53821238  0.76214702     0.19600
C1517       C  0.16358847  0.39879797  0.89454938    -0.06200
C1518       C  0.18781647  0.39011047  0.86727777    -0.17400
C1519       C  0.18849985  0.36486226  0.84966515     0.10900
C1520       C  0.16477947  0.34710902  0.85999924    -0.06200
C1521       C  0.14011503  0.35580827  0.88626075    -0.17400
C1522       C  0.13936942  0.38116239  0.90393694     0.11000
S1523       S  0.21963886  0.35698658  0.81254010    -0.32400
S1524       S  0.10767069  0.38906786  0.93992148    -0.32400
H1525       H  0.12614954  0.40101248  0.97233471     0.29000
H1526       H  0.20194558  0.34111687  0.78437931     0.29000
H1527       H  0.20622783  0.40335400  0.85840736     0.19600
H1528       H  0.12185632  0.34233788  0.89484069     0.19600
C1529       C  0.12468486  0.14904523  0.43001781    -0.06200
C1530       C  0.15107885  0.14218272  0.40592568    -0.17400
C1531       C  0.15971608  0.11604529  0.40036695     0.10900
C1532       C  0.14230337  0.09604560  0.42099600    -0.06200
C1533       C  0.11563586  0.10311806  0.44462883    -0.17400
C1534       C  0.10678536  0.12916021  0.44949994     0.11000
S1535       S  0.19218761  0.10978752  0.36485523    -0.32400
S1536       S  0.07335413  0.13567510  0.48304957    -0.32400
H1537       H  0.08552201  0.15803350  0.50354723     0.29000
H1538       H  0.17764910  0.08948236  0.34155245     0.29000
H1539       H  0.16461367  0.15732850  0.39005307     0.19600
H1540       H  0.10183813  0.08828912  0.46084203     0.19600
C1541       C  0.98524153  0.24449268  0.22876715    -0.06200
C1542       C  0.99210085  0.26660428  0.25413792    -0.17400
C1543       C  0.01095079  0.26469149  0.29146175     0.10900
C1544       C  0.02363349  0.24024539  0.30323434    -0.06200
C1545       C  0.01542198  0.21789734  0.27960637    -0.17400
C1546       C  0.99599976  0.21968126  0.24285100     0.11000
S1547       S  0.01817342  0.29412277  0.32264675    -0.32400
S1548       S  0.98538156  0.18953955  0.21605424    -0.32400
H1549       H  0.95511506  0.19727518  0.20649037     0.29000
H1550       H  0.02171694  0.28175024  0.36414999     0.29000
H1551       H  0.98326947  0.28554892  0.24432405     0.19600
H1552       H  0.02470157  0.19907282  0.28924434     0.19600
C1553       C  0.00059055  0.24548230  0.52421465    -0.06200
C1554       C  0.99803020  0.22629976  0.55753270    -0.17400
C1555       C  0.97360458  0.22639192  0.58808705     0.10900
C1556       C  0.95115815  0.24642872  0.58609697    -0.06200
C1557       C  0.95397230  0.26561261  0.55275793    -0.17400
C1558       C  0.97794801  0.26521278  0.52180623     0.11000
S1559       S  0.97197973  0.19984396  0.62744239    -0.32400
S1560       S  0.97747083  0.28991981  0.47893874    -0.32400
H1561       H  0.98794581  0.27330243  0.44498606     0.29000
H1562       H  0.94063206  0.19483444  0.62044967     0.29000
H1563       H  0.01527730  0.21110301  0.55989425     0.19600
H1564       H  0.93698396  0.28100368  0.55022424     0.19600
C1565       C  0.20057402  0.24756668  0.33468529    -0.06200
C1566       C  0.19983023  0.23241443  0.29582049    -0.17400
C1567       C  0.22431471  0.23223757  0.26565594     0.10900
C1568       C  0.25055550  0.24754793  0.27405677    -0.06200
C1569       C  0.25145678  0.26281495  0.31280055    -0.17400
C1570       C  0.22679793  0.26305889  0.34305530     0.11000
S1571       S  0.22038439  0.21242136  0.21651668    -0.32400
S1572       S  0.22985572  0.28410762  0.39073024    -0.32400
H1573       H  0.19873460  0.29126461  0.39165648     0.29000
H1574       H  0.23725417  0.22896480  0.18824316     0.29000
H1575       H  0.17979468  0.22064355  0.28869455     0.19600
H1576       H  0.27159301  0.27451500  0.31967016     0.19600
C1577       C  0.13006679  0.25450461  0.58647481    -0.06200
C1578       C  0.13429590  0.27783654  0.60998569    -0.17400
C1579       C  0.13311757  0.27823782  0.65644112     0.10900
C1580       C  0.12777609  0.25478803  0.67992607    -0.06200
C1581       C  0.12245105  0.23168817  0.65620266    -0.17400
C1582       C  0.12294820  0.23138298  0.60988743     0.11000
S1583       S  0.14111659  0.30864804  0.68390363    -0.32400
S1584       S  0.11349602  0.20106041  0.58271891    -0.32400
H1585       H  0.09585316  0.21239279  0.54860292     0.29000
H1586       H  0.11525611  0.30714757  0.71173191     0.29000
H1587       H  0.13849556  0.29584380  0.59199138     0.19600
H1588       H  0.11850754  0.21357549  0.67404626     0.19600
C1589       C  0.12502033  0.59420351  0.33341062    -0.06200
C1590       C  0.10377497  0.61240369  0.31716534    -0.17400
C1591       C  0.11107967  0.63895655  0.31300205     0.10900
C1592       C  0.14025598  0.64828614  0.32710437    -0.06200
C1593       C  0.16131222  0.62994178  0.34409733    -0.17400
C1594       C  0.15407340  0.60331396  0.34759943     0.11000
S1595       S  0.08222809  0.65922077  0.28740555    -0.32400
S1596       S  0.18264764  0.58225131  0.37215974    -0.32400
H1597       H  0.16151404  0.56645893  0.39517608     0.29000
H1598       H  0.10246900  0.66903405  0.25492965     0.29000
H1599       H  0.08161248  0.60569631  0.30562000     0.19600
H1600       H  0.18359610  0.63636717  0.35554976     0.19600
C1601       C  0.98608660  0.49433666  0.53863673    -0.06200
C1602       C  0.98603916  0.51729303  0.51260743    -0.17400
C1603       C  0.00691455  0.52105771  0.47794698     0.10900
C1604       C  0.02836982  0.50130300  0.46814428    -0.06200
C1605       C  0.02818385  0.47820211  0.49377347    -0.17400
C1606       C  0.00716995  0.47436158  0.52827922     0.11000
S1607       S  0.00586660  0.55203212  0.44939190    -0.32400
S1608       S  0.00767291  0.44312391  0.55605505    -0.32400
H1609       H  0.97554118  0.44081462  0.55794886     0.29000
H1610       H  0.03793448  0.55500515  0.44829012     0.29000
H1611       H  0.97026329  0.53298570  0.52020417     0.19600
H1612       H  0.04404293  0.46259852  0.48615392     0.19600
C1613       C  0.00703958  0.49993128  0.23051488    -0.06200
C1614       C  0.98593647  0.52059760  0.23273821    -0.17400
C1615       C  0.96123552  0.52243812  0.20310946     0.10900
C1616       C  0.95639755  0.50264417  0.17098038    -0.06200
C1617       C  0.97825693  0.48270900  0.16711899    -0.17400
C1618       C  0.00368892  0.48141251  0.19566875     0.11000
S1619       S  0.93715012  0.55099099  0.20750289    -0.32400
S1620       S  0.03140303  0.45612722  0.18450078    -0.32400
H1621       H  0.05682523  0.47277132  0.18945590     0.29000
H1622       H  0.93117703  0.55294350  0.16164945     0.29000
H1623       H  0.98854746  0.53550412  0.25798102     0.19600
H1624       H  0.97528353  0.46773920  0.14207647     0.19600
C1625       C  0.13520745  0.48662293  0.17655753    -0.06200
C1626       C  0.13232469  0.51121231  0.15650361    -0.17400
C1627       C  0.12870827  0.51381159  0.11061104     0.10900
C1628       C  0.12925491  0.49139570  0.08318260    -0.06200
C1629       C  0.13168358  0.46668530  0.10318869    -0.17400
C1630       C  0.13463933  0.46407137  0.14946887     0.11000
S1631       S  0.12262901  0.54637238  0.08917605    -0.32400
S1632       S  0.13888091  0.43155722  0.17179812    -0.32400
H1633       H  0.15626006  0.43898856  0.20903479     0.29000
H1634       H  0.10517777  0.53853907  0.05223925     0.29000
H1635       H  0.13115751  0.52855593  0.17701324     0.19600
H1636       H  0.13296561  0.44941264  0.08255234     0.19600
C1637       C  0.10026616  0.34435451  0.39287063    -0.06200
C1638       C  0.08244228  0.36137550  0.41885169    -0.17400
C1639       C  0.08016536  0.38784553  0.40844187     0.10900
C1640       C  0.09601388  0.39768743  0.37113690    -0.06200
C1641       C  0.11388623  0.38094637  0.34519576    -0.17400
C1642       C  0.11689656  0.35460237  0.35623940     0.11000
S1643       S  0.05590943  0.40778603  0.44323051    -0.32400
S1644       S  0.14377816  0.33584501  0.32378046    -0.32400
H1645       H  0.15668633  0.32316988  0.36089562     0.29000
H1646       H  0.04662604  0.42515146  0.40952976     0.29000
H1647       H  0.06945089  0.35395894  0.44689710     0.19600
H1648       H  0.12673421  0.38873172  0.31727822     0.19600
C1649       C  0.39194693  0.84178434  0.07953508    -0.06200
C1650       C  0.36048629  0.84828714  0.08077044    -0.17400
C1651       C  0.35023865  0.87425246  0.08041815     0.10900
C1652       C  0.37174545  0.89488572  0.07763999    -0.06200
C1653       C  0.40317706  0.88837869  0.07692128    -0.17400
C1654       C  0.41344142  0.86246167  0.07839237     0.11000
S1655       S  0.30939840  0.87935752  0.08198567    -0.32400
S1656       S  0.45429495  0.85746843  0.07726740    -0.32400
H1657       H  0.45455325  0.84490432  0.11895128     0.29000
H1658       H  0.31060446  0.89290651  0.12258323     0.29000
H1659       H  0.34340970  0.83296274  0.08216217     0.19600
H1660       H  0.42025867  0.90369293  0.07543909     0.19600
C1661       C  0.48558252  0.74832489  0.21784924    -0.06200
C1662       C  0.48666838  0.72505457  0.24296135    -0.17400
C1663       C  0.50816925  0.72137280  0.27684823     0.10900
C1664       C  0.52891784  0.74159218  0.28691372    -0.06200
C1665       C  0.52796154  0.76477640  0.26168263    -0.17400
C1666       C  0.50645865  0.76851078  0.22789556     0.11000
S1667       S  0.50890403  0.68998042  0.30407849    -0.32400
S1668       S  0.50609249  0.79994936  0.20076247    -0.32400
H1669       H  0.47391296  0.80200769  0.20016192     0.29000
H1670       H  0.54107838  0.68870213  0.30690891     0.29000
H1671       H  0.47128942  0.70911258  0.23520687     0.19600
H1672       H  0.54344340  0.78064471  0.26935890     0.19600
C1673       C  0.51688219  0.74417874  0.98966709    -0.06200
C1674       C  0.52630861  0.76774160  0.96961954    -0.17400
C1675       C  0.55145520  0.76870512  0.94031846     0.10900
C1676       C  0.56744552  0.74551515  0.92967148    -0.06200
C1677       C  0.55826529  0.72208025  0.94995323    -0.17400
C1678       C  0.53369027  0.72114306  0.97991756     0.11000
S1679       S  0.56271477  0.80024761  0.91919901    -0.32400
S1680       S  0.52610594  0.68997820  0.00574195    -0.32400
H1681       H  0.52119595  0.70047796  0.04833374     0.29000
H1682       H  0.59444971  0.79543068  0.92107368     0.29000
H1683       H  0.51397492  0.78561710  0.97672295     0.19600
H1684       H  0.57072799  0.70424806  0.94285330     0.19600
C1685       C  0.26299135  0.74070350  0.23273390    -0.06200
C1686       C  0.26674268  0.76092793  0.20117758    -0.17400
C1687       C  0.29141861  0.76130181  0.17123058     0.10900
C1688       C  0.31311178  0.74083420  0.17195299    -0.06200
C1689       C  0.30905226  0.72029878  0.20247651    -0.17400
C1690       C  0.28425982  0.71976191  0.23215477     0.11000
S1691       S  0.29489026  0.78927628  0.13502086    -0.32400
S1692       S  0.28199252  0.69217119  0.26917524    -0.32400
H1693       H  0.25370473  0.68388264  0.25170155     0.29000
H1694       H  0.32671496  0.79213274  0.14086689     0.29000
H1695       H  0.25063586  0.77704254  0.20028108     0.19600
H1696       H  0.32549517  0.70441556  0.20329214     0.19600
C1697       C  0.39361079  0.39335989  0.17688982    -0.06200
C1698       C  0.40592566  0.37564489  0.14623677    -0.17400
C1699       C  0.39697167  0.34941390  0.14622412     0.10900
C1700       C  0.37509686  0.34056038  0.17749567    -0.06200
C1701       C  0.36239724  0.35831039  0.20772846    -0.17400
C1702       C  0.37132528  0.38457779  0.20771621     0.11000
S1703       S  0.41400232  0.32836596  0.10502902    -0.32400
S1704       S  0.35283407  0.40595625  0.24704570    -0.32400
H1705       H  0.35178114  0.42780588  0.21865518     0.29000
H1706       H  0.38871489  0.31158636  0.10046465     0.29000
H1707       H  0.42276076  0.38227836  0.12222475     0.19600
H1708       H  0.34560342  0.35160960  0.23175267     0.19600
C1709       C  0.52480764  0.49632537  0.96149204    -0.06200
C1710       C  0.51596477  0.47142452  0.97659941    -0.17400
C1711       C  0.49592570  0.46843318  0.01253248     0.10900
C1712       C  0.48429470  0.49085410  0.03370382    -0.06200
C1713       C  0.49229619  0.51570873  0.01763774    -0.17400
C1714       C  0.51246551  0.51870338  0.98195212     0.11000
S1715       S  0.48739389  0.43569117  0.03098267    -0.32400
S1716       S  0.52279185  0.55147971  0.96593262    -0.32400
H1717       H  0.55397612  0.54588076  0.95872095     0.29000
H1718       H  0.48694969  0.44156273  0.07660781     0.29000
H1719       H  0.52529844  0.45414088  0.96085606     0.19600
H1720       H  0.48327233  0.53299602  0.03375548     0.19600
C1721       C  0.26572837  0.49849158  0.02105006    -0.06200
C1722       C  0.26380691  0.50984071  0.06348839    -0.17400
C1723       C  0.28795359  0.50798210  0.09430081     0.10900
C1724       C  0.31564391  0.49517150  0.08231803    -0.06200
C1725       C  0.31735623  0.48394016  0.03958890    -0.17400
C1726       C  0.29303308  0.48540172  0.00912003     0.11000
S1727       S  0.28130047  0.52190521  0.14834134    -0.32400
S1728       S  0.29799885  0.47156377  0.95429698    -0.32400
H1729       H  0.32851970  0.46320716  0.95945278     0.29000
H1730       H  0.28976703  0.49895059  0.17108236     0.29000
H1731       H  0.24279587  0.51960201  0.07338880     0.19600
H1732       H  0.33819644  0.47411295  0.02945436     0.19600
C1733       C  0.56744955  0.49845411  0.33042314    -0.06200
C1734       C  0.54434768  0.48031908  0.34022998    -0.17400
C1735       C  0.51962145  0.47624236  0.31111343     0.10900
C1736       C  0.51724760  0.49104279  0.27115014    -0.06200
C1737       C  0.54029456  0.50955999  0.26210708    -0.17400
C1738       C  0.56502808  0.51345112  0.29105601     0.11000
S1739       S  0.49183890  0.45214825  0.32770724    -0.32400
S1740       S  0.59239526  0.53844006  0.27634631    -0.32400
H1741       H  0.59952629  0.54548221  0.32030249     0.29000
H1742       H  0.49767987  0.43630745  0.29049074     0.29000
H1743       H  0.54616951  0.46849137  0.37004033     0.19600
H1744       H  0.53899510  0.52141407  0.23228425     0.19600
C1745       C  0.41636751  0.64306155  0.11360658    -0.06200
C1746       C  0.39638447  0.63471422  0.14757500    -0.17400
C1747       C  0.39665494  0.60902283  0.16333308     0.10900
C1748       C  0.41699205  0.59073217  0.14431300    -0.06200
C1749       C  0.43675309  0.59889946  0.11006363    -0.17400
C1750       C  0.43651516  0.62462895  0.09430649     0.11000
S1751       S  0.37176879  0.60139250  0.20948640    -0.32400
S1752       S  0.46358319  0.63282114  0.05127258    -0.32400
H1753       H  0.44046848  0.63956882  0.02069576     0.29000
H1754       H  0.39319650  0.58539010  0.23150886     0.29000
H1755       H  0.38085863  0.64852359  0.16297020     0.19600
H1756       H  0.45231139  0.58500861  0.09493948     0.19600
C1757       C  0.36854355  0.85122409  0.67297437    -0.06200
C1758       C  0.39980523  0.85761135  0.67766913    -0.17400
C1759       C  0.40997584  0.88344427  0.67938123     0.10900
C1760       C  0.38867357  0.90413615  0.67501275    -0.06200
C1761       C  0.35740571  0.89787243  0.67005748    -0.17400
C1762       C  0.34716806  0.87193709  0.66873303     0.11000
S1763       S  0.45031519  0.88823758  0.68947607    -0.32400
S1764       S  0.30655250  0.86697487  0.66231496    -0.32400
H1765       H  0.31007615  0.85339480  0.62202632     0.29000
H1766       H  0.44556039  0.90677611  0.72323450     0.29000
H1767       H  0.41679927  0.84228812  0.68098246     0.19600
H1768       H  0.34061813  0.91334973  0.66652196     0.19600
C1769       C  0.27559616  0.75082017  0.53832118    -0.06200
C1770       C  0.26580148  0.77253137  0.51397267    -0.17400
C1771       C  0.24721040  0.76951230  0.47663321     0.10900
C1772       C  0.23720621  0.74427882  0.46420563    -0.06200
C1773       C  0.24711845  0.72249983  0.48838731    -0.17400
C1774       C  0.26600004  0.72550576  0.52556911     0.11000
S1775       S  0.23831673  0.79855057  0.44501939    -0.32400
S1776       S  0.27598858  0.69641431  0.55638892    -0.32400
H1777       H  0.27680034  0.70846297  0.59832772     0.29000
H1778       H  0.23695495  0.78620573  0.40337288     0.29000
H1779       H  0.27368100  0.79186164  0.52305330     0.19600
H1780       H  0.23923026  0.70318564  0.47924154     0.19600
C1781       C  0.50034937  0.75004080  0.52033133    -0.06200
C1782       C  0.49647269  0.77137104  0.54956402    -0.17400
C1783       C  0.47155933  0.77291922  0.57924674     0.10900
C1784       C  0.44968168  0.75262479  0.58046785    -0.06200
C1785       C  0.45370227  0.73120636  0.55195542    -0.17400
C1786       C  0.47866956  0.72946591  0.52270718     0.11000
S1787       S  0.46824211  0.80186748  0.61289207    -0.32400
S1788       S  0.48063393  0.70074106  0.48854436    -0.32400
H1789       H  0.50814200  0.69218189  0.50826858     0.29000
H1790       H  0.43612129  0.80370764  0.61011533     0.29000
H1791       H  0.51279439  0.78730284  0.54900408     0.19600
H1792       H  0.43710074  0.71546360  0.55252570     0.19600
C1793       C  0.19661309  0.75213936  0.82570835    -0.06200
C1794       C  0.21655776  0.77371960  0.82606323    -0.17400
C1795       C  0.24164718  0.77536887  0.79665550     0.10900
C1796       C  0.24666365  0.75538214  0.76499040    -0.06200
C1797       C  0.22683964  0.73381077  0.76498252    -0.17400
C1798       C  0.20245238  0.73174512  0.79507172     0.11000
S1799       S  0.26726683  0.80269400  0.80288599    -0.32400
S1800       S  0.18072366  0.70178604  0.79391748    -0.32400
H1801       H  0.17776842  0.69981802  0.84039905     0.29000
H1802       H  0.29422082  0.78795492  0.79715076     0.29000
H1803       H  0.21264283  0.78941112  0.84949908     0.19600
H1804       H  0.23077216  0.71800236  0.74176853     0.19600
C1805       C  0.37969865  0.74167202  0.82966955    -0.06200
C1806       C  0.37848471  0.71704202  0.85024334    -0.17400
C1807       C  0.37814777  0.71451703  0.89647235     0.10900
C1808       C  0.37941550  0.73709307  0.92315207    -0.06200
C1809       C  0.38039163  0.76175360  0.90270513    -0.17400
C1810       C  0.38019517  0.76431098  0.85639056     0.11000
S1811       S  0.37516930  0.68202365  0.91936205    -0.32400
S1812       S  0.37927108  0.79692190  0.83367258    -0.32400
H1813       H  0.35672993  0.79150449  0.80158584     0.29000
H1814       H  0.35918836  0.68945273  0.95795226     0.29000
H1815       H  0.37703853  0.69958993  0.83003731     0.19600
H1816       H  0.38180763  0.77917861  0.92297321     0.19600
C1817       C  0.37778149  0.40525805  0.57793777    -0.06200
C1818       C  0.37393286  0.39156317  0.61791494    -0.17400
C1819       C  0.38517323  0.36609651  0.62331106     0.10900
C1820       C  0.39936993  0.35312146  0.58697687    -0.06200
C1821       C  0.40329608  0.36719507  0.54701271    -0.17400
C1822       C  0.39288134  0.39291163  0.54220440     0.11000
S1823       S  0.38123351  0.35200405  0.67788926    -0.32400
S1824       S  0.39884643  0.40860890  0.48911062    -0.32400
H1825       H  0.37195836  0.42377224  0.49025494     0.29000
H1826       H  0.41273145  0.34638368  0.68166052     0.29000
H1827       H  0.36320425  0.40123807  0.64593058     0.19600
H1828       H  0.41424613  0.35803298  0.51871381     0.19600
C1829       C  0.23593751  0.49895619  0.78671552    -0.06200
C1830       C  0.23917037  0.47546645  0.76336611    -0.17400
C1831       C  0.26014250  0.47310436  0.72840212     0.10900
C1832       C  0.27825431  0.49485409  0.71609703    -0.06200
C1833       C  0.27453149  0.51848849  0.73930718    -0.17400
C1834       C  0.25381541  0.52070814  0.77456731     0.11000
S1835       S  0.26359989  0.44152787  0.70262019    -0.32400
S1836       S  0.25192755  0.55152554  0.80336964    -0.32400
H1837       H  0.24536141  0.54114002  0.84561879     0.29000
H1838       H  0.29583944  0.44201237  0.70088805     0.29000
H1839       H  0.22564971  0.45863517  0.77310778     0.19600
H1840       H  0.28805226  0.53541975  0.73012695     0.19600
C1841       C  0.50370193  0.49780250  0.73300046    -0.06200
C1842       C  0.48209230  0.47745297  0.73242251    -0.17400
C1843       C  0.45694670  0.47787049  0.70339721     0.10900
C1844       C  0.45288602  0.49912328  0.67396355    -0.06200
C1845       C  0.47456657  0.51933206  0.67384307    -0.17400
C1846       C  0.49996487  0.51881009  0.70261490     0.11000
S1847       S  0.43063003  0.45071990  0.70569407    -0.32400
S1848       S  0.52729240  0.54500767  0.69763366    -0.32400
H1849       H  0.55304078  0.52865577  0.70177445     0.29000
H1850       H  0.42213203  0.45153879  0.66062573     0.29000
H1851       H  0.48467207  0.46109900  0.75504533     0.19600
H1852       H  0.47157849  0.53572982  0.65140576     0.19600
C1853       C  0.25318159  0.49796912  0.48614099    -0.06200
C1854       C  0.23228584  0.47725389  0.49045174    -0.17400
C1855       C  0.20741478  0.47447228  0.46133174     0.10900
C1856       C  0.20282392  0.49287949  0.42667014    -0.06200
C1857       C  0.22417497  0.51306307  0.42132403    -0.17400
C1858       C  0.24890968  0.51598826  0.45062657     0.11000
S1859       S  0.18287033  0.44654114  0.46966936    -0.32400
S1860       S  0.27442258  0.54287438  0.43989881    -0.32400
H1861       H  0.26502281  0.55638500  0.47824198     0.29000
H1862       H  0.17690253  0.44256715  0.42423723     0.29000
H1863       H  0.23526843  0.46303033  0.51685547     0.19600
H1864       H  0.22093518  0.52733415  0.39505572     0.19600
C1865       C  0.38477154  0.51588974  0.42454219    -0.06200
C1866       C  0.35930335  0.52169450  0.39727012    -0.17400
C1867       C  0.35982117  0.51722860  0.35143255     0.10900
C1868       C  0.38669995  0.50731691  0.33177566    -0.06200
C1869       C  0.41275217  0.50312747  0.35858925    -0.17400
C1870       C  0.41220302  0.50745972  0.40432859     0.11000
S1871       S  0.32481934  0.52255151  0.32090730    -0.32400
S1872       S  0.44737353  0.50216663  0.43451284    -0.32400
H1873       H  0.44251098  0.52280468  0.46447898     0.29000
H1874       H  0.32758955  0.49984792  0.29500437     0.29000
H1875       H  0.33795347  0.52812602  0.41206632     0.19600
H1876       H  0.43402233  0.49645575  0.34370811     0.19600
C1877       C  0.35111726  0.65378138  0.64155964    -0.06200
C1878       C  0.35349787  0.64602578  0.59688545    -0.17400
C1879       C  0.35442959  0.61974660  0.58504889     0.10900
C1880       C  0.35178716  0.60043278  0.61845740    -0.06200
C1881       C  0.35011464  0.60813929  0.66318103    -0.17400
C1882       C  0.35031591  0.63444259  0.67514244     0.11000
S1883       S  0.36010690  0.61242823  0.52700443    -0.32400
S1884       S  0.35053785  0.64174046  0.73372566    -0.32400
H1885       H  0.37244417  0.66179265  0.72999792     0.29000
H1886       H  0.38065308  0.59172213  0.53487079     0.29000
H1887       H  0.35461147  0.66056681  0.57068040     0.19600
H1888       H  0.34859542  0.59353444  0.68923090     0.19600
loop_ 
_geom_bond_atom_site_label_1 
_geom_bond_atom_site_label_2 
_geom_bond_distance 
_geom_bond_site_symmetry_2 
_ccdc_geom_bond_type 
Zn1           O5   1.932       .  S
Zn1           O6   2.000       .  S
Zn1          O10   2.009       .  S
Zn1          O17   1.976       .  S
Zn2           O5   1.918       .  S
Zn2           O7   1.992       .  S
Zn2           O9   1.995       .  S
Zn2          O13   2.010       .  S
Zn3           O5   1.940       .  S
Zn3           O8   2.052       .  S
Zn3          O11   2.031       .  S
Zn3          O14   2.042       .  S
Zn4           O5   1.940       .  S
Zn4          O12   2.013       .  S
Zn4          O15   2.066       .  S
Zn4          O16   2.036       .  S
O6           C18   1.272       .  A
O7           C19   1.273       .  A
O8           C20   1.279       .  A
O9           C18   1.272       .  A
O10          C20   1.272       .  A
O11          C19   1.276       .  A
O12          C21   1.274       .  A
O13          C22   1.273       .  A
O14          C21   1.278       .  A
O15          C22   1.280       .  A
O16          C23   1.278       .  A
O17          C23   1.270       .  A
C18        C1880   1.475       .  S
C19        C1832   1.480       .  S
C20        C1853   1.495       .  S
C21        C1817   1.478       .  S
C22        C1844   1.480       .  S
C23        C1865   1.482       .  S
Zn24         O28   1.941       .  S
Zn24         O29   2.000       .  S
Zn24         O33   2.083       .  S
Zn24         O40   2.049       .  S
Zn25         O28   1.949       .  S
Zn25         O30   2.042       .  S
Zn25         O32   2.044       .  S
Zn25         O36   2.063       .  S
Zn26         O28   1.912       .  S
Zn26         O31   1.991       .  S
Zn26         O34   1.968       .  S
Zn26         O37   1.977       .  S
Zn27         O28   1.930       .  S
Zn27         O35   2.008       .  S
Zn27         O38   2.009       .  S
Zn27         O39   1.967       .  S
O29          C41   1.275       .  A
O30          C42   1.278       .  A
O31          C43   1.272       .  A
O32          C41   1.278       .  A
O33          C43   1.282       .  A
O34          C42   1.269       .  A
O35          C44   1.271       .  A
O36          C45   1.278       .  A
O37          C44   1.269       .  A
O38          C45   1.273       .  A
O39          C46   1.270       .  A
O40          C46   1.280       .  A
C41        C1757   1.495       .  S
C42        C1769   1.466       .  S
C43        C1784   1.490       .  S
C44        C1877   1.477       .  S
C45        C1796   1.491       .  S
C46        C1805   1.472       .  S
Zn47         O51   1.935       .  S
Zn47         O52   2.016       .  S
Zn47         O56   2.025       .  S
Zn47         O63   2.024       .  S
Zn48         O51   1.960       .  S
Zn48         O53   2.049       .  S
Zn48         O55   2.058       .  S
Zn48         O59   2.016       .  S
Zn49         O51   1.932       .  S
Zn49         O54   2.016       .  S
Zn49         O57   1.955       .  S
Zn49         O60   2.033       .  S
Zn50         O51   1.934       .  S
Zn50         O58   2.033       .  S
Zn50         O61   2.000       .  S
Zn50         O62   1.983       .  S
O52          C64   1.276       .  A
O53          C65   1.279       .  A
O54          C66   1.274       .  A
O55          C64   1.279       .  A
O56          C66   1.275       .  A
O57          C65   1.268       .  A
O58          C67   1.276       .  A
O59          C68   1.273       .  A
O60          C67   1.274       .  A
O61          C68   1.271       .  A
O62          C69   1.272       .  A
O63          C69   1.276       .  A
C64        C1724   1.506       .  S
C65        C1868   1.477       .  S
C66        C1697   1.476       .  S
C67        C1736   1.501       .  S
C68        C1748   1.478       .  S
C69        C1712   1.467       .  S
Zn70         O74   1.926       .  S
Zn70         O75   1.995       .  S
Zn70         O79   1.980       .  S
Zn70         O86   1.990       .  S
Zn71         O74   1.946       .  S
Zn71         O76   2.000       .  S
Zn71         O78   2.056       .  S
Zn71         O82   2.028   1_554  S
Zn72         O74   1.956       .  S
Zn72         O77   2.034       .  S
Zn72         O80   2.057       .  S
Zn72         O83   2.059       .  S
Zn73         O74   1.942       .  S
Zn73         O81   2.012       .  S
Zn73         O84   1.984   1_554  S
Zn73         O85   2.028       .  S
O75          C87   1.272       .  A
O76          C88   1.273       .  A
O77          C89   1.277       .  A
O78          C87   1.279       .  A
O79          C89   1.271       .  A
O80          C88   1.279       .  A
O81          C90   1.273       .  A
O82          C91   1.277       .  A
O83          C90   1.279       .  A
O84          C91   1.271       .  A
O85          C92   1.273       .  A
O86          C92   1.270       .  A
C87        C1688   1.485       .  S
C88        C1649   1.499       .  S
C89        C1661   1.482       .  S
C90        C1673   1.496   1_554  S
C91        C1808   1.471       .  S
C92        C1745   1.485       .  S
Zn93         O97   1.922       .  S
Zn93         O98   1.991       .  S
Zn93        O102   1.985       .  S
Zn93        O109   1.966       .  S
Zn94         O97   1.940       .  S
Zn94         O99   2.049       .  S
Zn94        O101   2.067       .  S
Zn94        O105   2.015       .  S
Zn95         O97   1.941       .  S
Zn95        O100   2.000       .  S
Zn95        O103   1.976       .  S
Zn95        O106   2.009       .  S
Zn96         O97   1.945       .  S
Zn96        O104   2.058       .  S
Zn96        O107   2.055       .  S
Zn96        O108   2.048       .  S
O98         C110   1.271       .  A
O99         C111   1.280       .  A
O100        C112   1.271       .  A
O101        C110   1.282       .  A
O102        C112   1.268       .  A
O103        C111   1.269       .  A
O104        C113   1.280       .  A
O105        C114   1.274       .  A
O106        C113   1.272       .  A
O107        C114   1.280       .  A
O108        C115   1.279       .  A
O109        C115   1.269       .  A
C110       C1856   1.486       .  S
C111       C1625   1.476       .  S
C112       C1640   1.460       .  S
C113       C1613   1.496       .  S
C114       C1589   1.490       .  S
C115       C1604   1.480       .  S
Zn116       O120   1.922       .  S
Zn116       O121   2.011       .  S
Zn116       O125   1.993       .  S
Zn116       O132   1.956       .  S
Zn117       O120   1.939       .  S
Zn117       O122   2.023       .  S
Zn117       O124   2.050       .  S
Zn117       O128   2.023       .  S
Zn118       O120   1.905       .  S
Zn118       O123   1.988       .  S
Zn118       O126   1.972       .  S
Zn118       O129   2.007       .  S
Zn119       O120   1.932       .  S
Zn119       O127   2.077       .  S
Zn119       O130   2.013       .  S
Zn119       O131   2.044       .  S
O121        C133   1.274       .  A
O122        C134   1.275       .  A
O123        C135   1.269       .  A
O124        C133   1.277       .  A
O125        C135   1.272       .  A
O126        C134   1.270       .  A
O127        C136   1.282       .  A
O128        C137   1.277       .  A
O129        C136   1.274       .  A
O130        C137   1.274       .  A
O131        C138   1.280       .  A
O132        C138   1.267       .  A
C133       C1553   1.487       .  S
C134       C1544   1.461       .  S
C135       C1637   1.478       .  S
C136       C1565   1.488       .  S
C137       C1529   1.477       .  S
C138       C1577   1.463       .  S
Zn139       O143   1.936       .  S
Zn139       O144   2.004       .  S
Zn139       O148   2.030       .  S
Zn139       O155   1.995       .  S
Zn140       O143   1.971       .  S
Zn140       O145   2.078   1_556  S
Zn140       O147   2.048       .  S
Zn140       O151   2.070       .  S
Zn141       O143   1.942       .  S
Zn141       O146   2.035       .  S
Zn141       O149   1.955   1_556  S
Zn141       O152   2.022       .  S
Zn142       O143   1.944       .  S
Zn142       O150   2.025       .  S
Zn142       O153   2.017       .  S
Zn142       O154   2.028       .  S
O144        C156   1.273       .  A
O145        C157   1.282       .  A
O146        C158   1.276       .  A
O147        C156   1.276       .  A
O148        C158   1.275       .  A
O149        C157   1.268       .  A
O150        C159   1.275       .  A
O151        C160   1.282       .  A
O152        C159   1.273       .  A
O153        C160   1.276       .  A
O154        C161   1.276       .  A
O155        C161   1.272       .  A
C156       C1517   1.496       .  S
C157       C1628   1.479       .  S
C158       C1721   1.493   1_556  S
C159       C1493   1.497       .  S
C160       C1505   1.491       .  S
C161       C1829   1.466       .  S
Zn162       O166   1.938       .  S
Zn162       O167   1.953       .  S
Zn162       O171   2.011       .  S
Zn162       O178   2.028       .  S
Zn163       O166   1.967       .  S
Zn163       O168   2.039       .  S
Zn163       O170   2.042       .  S
Zn163       O174   2.029       .  S
Zn164       O166   1.952       .  S
Zn164       O169   2.039       .  S
Zn164       O172   2.019       .  S
Zn164       O175   2.024       .  S
Zn165       O166   1.947       .  S
Zn165       O173   1.987       .  S
Zn165       O176   2.025       .  S
Zn165       O177   2.051       .  S
O167        C179   1.268       .  A
O168        C180   1.277       .  A
O169        C181   1.276       .  A
O170        C179   1.277       .  A
O171        C181   1.272       .  A
O172        C180   1.275       .  A
O173        C182   1.272       .  A
O174        C183   1.274       .  A
O175        C182   1.276       .  A
O176        C183   1.274       .  A
O177        C184   1.278       .  A
O178        C184   1.274       .  A
C179       C1580   1.466       .  S
C180       C1472   1.482       .  S
C181       C1445   1.493       .  S
C182       C1457   1.467       .  S
C183       C1520   1.487       .  S
C184       C1481   1.500       .  S
Zn185       O189   1.948       .  S
Zn185       O190   2.033       .  S
Zn185       O194   2.033       .  S
Zn185       O201   2.050       .  S
Zn186       O189   1.914       .  S
Zn186       O191   2.001       .  S
Zn186       O193   1.973       .  S
Zn186       O197   1.976       .  S
Zn187       O189   1.931       .  S
Zn187       O192   2.009       .  S
Zn187       O195   2.055       .  S
Zn187       O198   2.017       .  S
Zn188       O189   1.942       .  S
Zn188       O196   1.993       .  S
Zn188       O199   2.022       .  S
Zn188       O200   2.022       .  S
O190        C202   1.277       .  A
O191        C203   1.273       .  A
O192        C204   1.273       .  A
O193        C202   1.270       .  A
O194        C204   1.276       .  A
O195        C203   1.278       .  A
O196        C205   1.273       .  A
O197        C206   1.267       .  A
O198        C205   1.278       .  A
O199        C206   1.275       .  A
O200        C207   1.273       .  A
O201        C207   1.276       .  A
C202       C1460   1.468       .  S
C203       C1412   1.488       .  S
C204       C1700   1.473       .  S
C205       C1421   1.469       .  S
C206       C1433   1.483       .  S
C207       C1568   1.483       .  S
Zn208       O212   1.928   1_545  S
Zn208       O213   1.982   1_545  S
Zn208       O217   1.989       .  S
Zn208       O224   1.994       .  S
Zn209       O212   1.952       .  S
Zn209       O214   2.056       .  S
Zn209       O216   2.038       .  S
Zn209       O220   2.052       .  S
Zn210       O212   1.940   1_545  S
Zn210       O215   2.007       .  S
Zn210       O218   2.002       .  S
Zn210       O221   1.977   1_554  S
Zn211       O212   1.940       .  S
Zn211       O219   2.035   1_554  S
Zn211       O222   2.006       .  S
Zn211       O223   2.058       .  S
O213        C225   1.272       .  A
O214        C226   1.279       .  A
O215        C227   1.272       .  A
O216        C225   1.278       .  A
O217        C227   1.269       .  A
O218        C226   1.271   1_545  A
O219        C228   1.278   1_565  A
O220        C229   1.278       .  A
O221        C228   1.270       .  A
O222        C229   1.274       .  A
O223        C230   1.279       .  A
O224        C230   1.271   1_545  A
C225       C1361   1.482       .  S
C226       C1385   1.491   1_554  S
C227       C1436   1.475       .  S
C228       C1400   1.470       .  S
C229       C1652   1.498       .  S
C230       C1373   1.477       .  S
Zn231       O235   1.939       .  S
Zn231       O236   2.028       .  S
Zn231       O240   2.013       .  S
Zn231       O247   1.964       .  S
Zn232       O235   1.944       .  S
Zn232       O237   1.973       .  S
Zn232       O239   2.022       .  S
Zn232       O243   2.006       .  S
Zn233       O235   1.941       .  S
Zn233       O238   2.034       .  S
Zn233       O241   2.015       .  S
Zn233       O244   2.022       .  S
Zn234       O235   1.960       .  S
Zn234       O242   2.063       .  S
Zn234       O245   2.010       .  S
Zn234       O246   2.046       .  S
O236        C248   1.272       .  A
O237        C249   1.271       .  A
O238        C250   1.274       .  A
O239        C248   1.275       .  A
O240        C250   1.275       .  A
O241        C249   1.275       .  A
O242        C251   1.280       .  A
O243        C252   1.272       .  A
O244        C251   1.274       .  A
O245        C252   1.272       .  A
O246        C253   1.279       .  A
O247        C253   1.270       .  A
C248       C1337   1.497       .  S
C249       C1325   1.471       .  S
C250       C1820   1.498       .  S
C251       C1484   1.490       .  S
C252       C1352   1.481       .  S
C253       C1424   1.474       .  S
Zn254       O258   1.919       .  S
Zn254       O259   1.994       .  S
Zn254       O263   1.961       .  S
Zn254       O270   1.988       .  S
Zn255       O258   1.952   1_565  S
Zn255       O260   2.013       .  S
Zn255       O262   2.071   1_565  S
Zn255       O266   2.031       .  S
Zn256       O258   1.958   1_565  S
Zn256       O261   2.040       .  S
Zn256       O264   2.033       .  S
Zn256       O267   2.076       .  S
Zn257       O258   1.940       .  S
Zn257       O265   2.006       .  S
Zn257       O268   1.976       .  S
Zn257       O269   2.015       .  S
O259        C271   1.270       .  A
O260        C272   1.275       .  A
O261        C273   1.277       .  A
O262        C271   1.280       .  A
O263        C273   1.269   1_545  A
O264        C272   1.277       .  A
O265        C274   1.271   1_545  A
O266        C275   1.278   1_565  A
O267        C274   1.281       .  A
O268        C275   1.270       .  A
O269        C276   1.272       .  A
O270        C276   1.270       .  A
C271       C1313   1.492       .  S
C272       C1760   1.491       .  S
C273       C1289   1.468       .  S
C274       C1301   1.505       .  S
C275       C1397   1.474       .  S
C276       C1349   1.478       .  S
Zn277       O281   1.937       .  S
Zn277       O282   1.988       .  S
Zn277       O286   2.023       .  S
Zn277       O293   1.986       .  S
Zn278       O281   1.955       .  S
Zn278       O283   2.064       .  S
Zn278       O285   2.041       .  S
Zn278       O289   2.058       .  S
Zn279       O281   1.932   1_545  S
Zn279       O284   2.034       .  S
Zn279       O287   1.960       .  S
Zn279       O290   2.020       .  S
Zn280       O281   1.935   1_545  S
Zn280       O288   2.040       .  S
Zn280       O291   2.036       .  S
Zn280       O292   2.022       .  S
O282        C294   1.269       .  A
O283        C295   1.282       .  A
O284        C296   1.276       .  A
O285        C294   1.275       .  A
O286        C296   1.273   1_565  A
O287        C295   1.268   1_545  A
O288        C297   1.277       .  A
O289        C298   1.280       .  A
O290        C297   1.273       .  A
O291        C298   1.278   1_545  A
O292        C299   1.277   1_545  A
O293        C299   1.271       .  A
C294       C1277   1.471       .  S
C295       C1265   1.481       .  S
C296       C1376   1.493   1_545  S
C297       C1241   1.501       .  S
C298       C1256   1.502       .  S
C299       C1292   1.463       .  S
Zn300       O304   1.949       .  S
Zn300       O305   2.027       .  S
Zn300       O309   2.040       .  S
Zn300       O316   1.987       .  S
Zn301       O304   1.945       .  S
Zn301       O306   2.043       .  S
Zn301       O308   2.059       .  S
Zn301       O312   2.065       .  S
Zn302       O304   1.912       .  S
Zn302       O307   1.989       .  S
Zn302       O310   1.971       .  S
Zn302       O313   1.987       .  S
Zn303       O304   1.937       .  S
Zn303       O311   2.075       .  S
Zn303       O314   2.017       .  S
Zn303       O315   2.038       .  S
O305        C317   1.277       .  A
O306        C318   1.278       .  A
O307        C319   1.269       .  A
O308        C317   1.280       .  A
O309        C319   1.276       .  A
O310        C318   1.270       .  A
O311        C320   1.282       .  A
O312        C321   1.281       .  A
O313        C320   1.271       .  A
O314        C321   1.274       .  A
O315        C322   1.279       .  A
O316        C322   1.271       .  A
C317       C1781   1.504       .  S
C318       C1664   1.479       .  S
C319       C1280   1.475       .  S
C320       C1217   1.490       .  S
C321       C1208   1.493       .  S
C322       C1229   1.476       .  S
Zn323       O327   1.945   1_545  S
Zn323       O328   2.048   1_546  S
Zn323       O332   2.070   1_545  S
Zn323       O339   2.009       .  S
Zn324       O327   1.947       .  S
Zn324       O329   2.029       .  S
Zn324       O331   1.990   1_556  S
Zn324       O335   2.017       .  S
Zn325       O327   1.929       .  S
Zn325       O330   2.012       .  S
Zn325       O333   1.989       .  S
Zn325       O336   1.996       .  S
Zn326       O327   1.957   1_545  S
Zn326       O334   2.029       .  S
Zn326       O337   2.045       .  S
Zn326       O338   2.036       .  S
O328        C340   1.280       .  A
O329        C341   1.274       .  A
O330        C342   1.274       .  A
O331        C340   1.271       .  A
O332        C342   1.282       .  A
O333        C341   1.270       .  A
O334        C343   1.276       .  A
O335        C344   1.275       .  A
O336        C343   1.272   1_565  A
O337        C344   1.278   1_545  A
O338        C345   1.275       .  A
O339        C345   1.274       .  A
C340       C1268   1.479       .  S
C341       C1193   1.483       .  S
C342       C1304   1.491       .  S
C343       C1169   1.473       .  S
C344       C1184   1.489   1_556  S
C345       C1157   1.492       .  S
Zn346       O350   1.950       .  S
Zn346       O351   2.046       .  S
Zn346       O355   1.982       .  S
Zn346       O362   2.027       .  S
Zn347       O350   1.937       .  S
Zn347       O352   1.988       .  S
Zn347       O354   2.010       .  S
Zn347       O358   1.973       .  S
Zn348       O350   1.968       .  S
Zn348       O353   2.050       .  S
Zn348       O356   2.030       .  S
Zn348       O359   2.062       .  S
Zn349       O350   1.951       .  S
Zn349       O357   2.009       .  S
Zn349       O360   2.030       .  S
Zn349       O361   2.024       .  S
O351        C363   1.275       .  A
O352        C364   1.270       .  A
O353        C365   1.279       .  A
O354        C363   1.273       .  A
O355        C365   1.272       .  A
O356        C364   1.274       .  A
O357        C366   1.273       .  A
O358        C367   1.269       .  A
O359        C366   1.280       .  A
O360        C367   1.275       .  A
O361        C368   1.275       .  A
O362        C368   1.276       .  A
C363       C1148   1.499       .  S
C364       C1196   1.480       .  S
C365       C1232   1.481       .  S
C366       C1676   1.487       .  S
C367       C1133   1.472       .  S
C368       C1121   1.484       .  S
Zn369       O373   1.910       .  S
Zn369       O374   1.995       .  S
Zn369       O378   1.970       .  S
Zn369       O385   1.981       .  S
Zn370       O373   1.924       .  S
Zn370       O375   1.998       .  S
Zn370       O377   2.059       .  S
Zn370       O381   2.024       .  S
Zn371       O373   1.945       .  S
Zn371       O376   2.042       .  S
Zn371       O379   2.054       .  S
Zn371       O382   2.053       .  S
Zn372       O373   1.940       .  S
Zn372       O380   2.017       .  S
Zn372       O383   1.978       .  S
Zn372       O384   2.005       .  S
O374        C386   1.272       .  A
O375        C387   1.272       .  A
O376        C388   1.278       .  A
O377        C386   1.279       .  A
O378        C388   1.271       .  A
O379        C387   1.280       .  A
O380        C389   1.274       .  A
O381        C390   1.277       .  A
O382        C389   1.279       .  A
O383        C390   1.268       .  A
O384        C391   1.273       .  A
O385        C391   1.269       .  A
C386       C1088   1.479       .  S
C387       C1073   1.486       .  S
C388       C1136   1.477       .  S
C389       C1220   1.493       .  S
C390       C1097   1.463       .  S
C391       C1109   1.471       .  S
Zn392       O396   1.944       .  S
Zn392       O397   2.017       .  S
Zn392       O401   1.965   1_554  S
Zn392       O408   2.018       .  S
Zn393       O396   1.953       .  S
Zn393       O398   2.048       .  S
Zn393       O400   2.066       .  S
Zn393       O404   2.039       .  S
Zn394       O396   1.952       .  S
Zn394       O399   2.040   1_554  S
Zn394       O402   2.010       .  S
Zn394       O405   2.082       .  S
Zn395       O396   1.920       .  S
Zn395       O403   1.981       .  S
Zn395       O406   1.965       .  S
Zn395       O407   1.973       .  S
O397        C409   1.274       .  A
O398        C410   1.279       .  A
O399        C411   1.278       .  A
O400        C409   1.278       .  A
O401        C411   1.269       .  A
O402        C410   1.275       .  A
O403        C412   1.269       .  A
O404        C413   1.278       .  A
O405        C412   1.281       .  A
O406        C413   1.268       .  A
O407        C414   1.269       .  A
O408        C414   1.272       .  A
C409       C1049   1.498   1_554  S
C410       C1025   1.480       .  S
C411       C1061   1.471       .  S
C412       C1616   1.489       .  S
C413       C1037   1.473       .  S
C414       C1112   1.479       .  S
Zn415       O419   1.943       .  S
Zn415       O420   2.023       .  S
Zn415       O424   2.015       .  S
Zn415       O431   1.967       .  S
Zn416       O419   1.920       .  S
Zn416       O421   1.963       .  S
Zn416       O423   1.993       .  S
Zn416       O427   1.983       .  S
Zn417       O419   1.957       .  S
Zn417       O422   2.070       .  S
Zn417       O425   2.050       .  S
Zn417       O428   2.064       .  S
Zn418       O419   1.946       .  S
Zn418       O426   2.020       .  S
Zn418       O429   2.072       .  S
Zn418       O430   2.037       .  S
O420        C432   1.272       .  A
O421        C433   1.270       .  A
O422        C434   1.280       .  A
O423        C432   1.270       .  A
O424        C434   1.275       .  A
O425        C433   1.279       .  A
O426        C435   1.275       .  A
O427        C436   1.270       .  A
O428        C435   1.280       .  A
O429        C436   1.281       .  A
O430        C437   1.278       .  A
O431        C437   1.269       .  A
C432       C1013   1.486       .  S
C433       C1601   1.482       .  S
C434       C1508   1.498   1_655  S
C435        C989   1.496       .  S
C436       C1001   1.487       .  S
C437       C1064   1.468       .  S
Zn438       O442   1.934       .  S
Zn438       O443   2.011       .  S
Zn438       O447   1.965       .  S
Zn438       O454   2.027       .  S
Zn439       O442   1.940       .  S
Zn439       O444   2.025       .  S
Zn439       O446   2.029       .  S
Zn439       O450   2.021       .  S
Zn440       O442   1.958       .  S
Zn440       O445   2.031       .  S
Zn440       O448   2.039       .  S
Zn440       O451   2.009       .  S
Zn441       O442   1.935       .  S
Zn441       O449   2.002       .  S
Zn441       O452   1.985       .  S
Zn441       O453   2.027       .  S
O443        C455   1.274       .  A
O444        C456   1.276       .  A
O445        C457   1.276       .  A
O446        C455   1.275       .  A
O447        C457   1.269       .  A
O448        C456   1.278       .  A
O449        C458   1.271       .  A
O450        C459   1.276       .  A
O451        C458   1.271       .  A
O452        C459   1.272       .  A
O453        C460   1.274       .  A
O454        C460   1.274       .  A
C455        C953   1.482       .  S
C456       C1145   1.487       .  S
C457       C1100   1.463       .  S
C458       C1016   1.476       .  S
C459        C965   1.469       .  S
C460        C977   1.485   1_655  S
Zn461       O465   1.911       .  S
Zn461       O466   1.995       .  S
Zn461       O470   2.001       .  S
Zn461       O477   1.968       .  S
Zn462       O465   1.931       .  S
Zn462       O467   2.055       .  S
Zn462       O469   2.079       .  S
Zn462       O473   2.026       .  S
Zn463       O465   1.935       .  S
Zn463       O468   2.024       .  S
Zn463       O471   1.983       .  S
Zn463       O474   2.011       .  S
Zn464       O465   1.946       .  S
Zn464       O472   2.051       .  S
Zn464       O475   2.062       .  S
Zn464       O476   2.043       .  S
O466        C478   1.272       .  A
O467        C479   1.281       .  A
O468        C480   1.274       .  A
O469        C478   1.282       .  A
O470        C480   1.270       .  A
O471        C479   1.271       .  A
O472        C481   1.279       .  A
O473        C482   1.275       .  A
O474        C481   1.273       .  A
O475        C482   1.282       .  A
O476        C483   1.279       .  A
O477        C483   1.270       .  A
C478       C1733   1.484       .  S
C479        C929   1.481       .  S
C480        C941   1.471       .  S
C481       C1004   1.490       .  S
C482       C1205   1.504       .  S
C483       C1040   1.472       .  S
Zn484       O488   1.929       .  S
Zn484       O489   2.027       .  S
Zn484       O493   1.943       .  S
Zn484       O500   2.024       .  S
Zn485       O488   1.921       .  S
Zn485       O490   1.992       .  S
Zn485       O492   2.008       .  S
Zn485       O496   1.975       .  S
Zn486       O488   1.969       .  S
Zn486       O491   2.050       .  S
Zn486       O494   2.030       .  S
Zn486       O497   2.056       .  S
Zn487       O488   1.932       .  S
Zn487       O495   1.990       .  S
Zn487       O498   2.021       .  S
Zn487       O499   2.031       .  S
O489        C501   1.275       .  A
O490        C502   1.269       .  A
O491        C503   1.278       .  A
O492        C501   1.272       .  A
O493        C503   1.267       .  A
O494        C502   1.275       .  A
O495        C504   1.273       .  A
O496        C505   1.270       .  A
O497        C504   1.280       .  A
O498        C505   1.276       .  A
O499        C506   1.274       .  A
O500        C506   1.275       .  A
C501        C908   1.486       .  S
C502        C944   1.491       .  S
C503        C917   1.468       .  S
C504       C1340   1.481       .  S
C505        C896   1.469       .  S
C506       C1244   1.490       .  S
Zn507       O511   1.948       .  S
Zn507       O512   2.051       .  S
Zn507       O516   2.045       .  S
Zn507       O523   2.033       .  S
Zn508       O511   1.939       .  S
Zn508       O513   1.990       .  S
Zn508       O515   2.033       .  S
Zn508       O519   2.035       .  S
Zn509       O511   1.938       .  S
Zn509       O514   2.007       .  S
Zn509       O517   2.054       .  S
Zn509       O520   2.077       .  S
Zn510       O511   1.915       .  S
Zn510       O518   2.010       .  S
Zn510       O521   1.981       .  S
Zn510       O522   1.978       .  S
O512        C524   1.278       .  A
O513        C525   1.272       .  A
O514        C526   1.274       .  A
O515        C524   1.277       .  A
O516        C526   1.278       .  A
O517        C525   1.281       .  A
O518        C527   1.274       .  A
O519        C528   1.275       .  A
O520        C527   1.282       .  A
O521        C528   1.270       .  A
O522        C529   1.270       .  A
O523        C529   1.276       .  A
C524       C1841   1.493       .  S
C525        C932   1.476       .  S
C526       C1124   1.490       .  S
C527       C1052   1.501       .  S
C528        C881   1.486       .  S
C529       C1709   1.469       .  S
Zn530       O534   1.919       .  S
Zn530       O535   1.974       .  S
Zn530       O539   1.986       .  S
Zn530       O546   2.023       .  S
Zn531       O534   1.920       .  S
Zn531       O536   2.011       .  S
Zn531       O538   2.011       .  S
Zn531       O542   2.034       .  S
Zn532       O534   1.950       .  S
Zn532       O537   2.028       .  S
Zn532       O540   2.053       .  S
Zn532       O543   2.044   1_556  S
Zn533       O534   1.913       .  S
Zn533       O541   1.952   1_556  S
Zn533       O544   2.006       .  S
Zn533       O545   2.026       .  S
O535        C547   1.272       .  A
O536        C548   1.276       .  A
O537        C549   1.275       .  A
O538        C547   1.276       .  A
O539        C549   1.270       .  A
O540        C548   1.279       .  A
O541        C550   1.269       .  A
O542        C551   1.275       .  A
O543        C550   1.279       .  A
O544        C551   1.273       .  A
O545        C552   1.274       .  A
O546        C552   1.273       .  A
C547       C1328   1.469       .  S
C548        C869   1.499       .  S
C549        C884   1.478       .  S
C550        C920   1.471       .  S
C551       C1160   1.482       .  S
C552       C1409   1.479   1_556  S
Zn553       O557   1.939   1_545  S
Zn553       O558   2.012       .  S
Zn553       O562   2.031       .  S
Zn553       O569   2.060   1_545  S
Zn554       O557   1.952   1_545  S
Zn554       O559   2.057       .  S
Zn554       O561   2.049       .  S
Zn554       O565   2.035       .  S
Zn555       O557   1.941       .  S
Zn555       O560   1.975       .  S
Zn555       O563   2.023       .  S
Zn555       O566   2.033       .  S
Zn556       O557   1.918       .  S
Zn556       O564   1.978       .  S
Zn556       O567   1.972       .  S
Zn556       O568   2.000       .  S
O558        C570   1.274       .  A
O559        C571   1.279       .  A
O560        C572   1.269       .  A
O561        C570   1.279       .  A
O562        C572   1.277   1_545  A
O563        C571   1.277   1_565  A
O564        C573   1.267       .  A
O565        C574   1.276       .  A
O566        C573   1.274       .  A
O567        C574   1.269   1_565  A
O568        C575   1.272       .  A
O569        C575   1.281       .  A
C570       C1448   1.483       .  S
C571        C836   1.501       .  S
C572        C845   1.469       .  S
C573        C857   1.466       .  S
C574        C824   1.461       .  S
C575       C1388   1.491       .  S
Zn576       O580   1.963       .  S
Zn576       O581   2.026       .  S
Zn576       O585   2.065       .  S
Zn576       O592   2.061   1_556  S
Zn577       O580   1.933       .  S
Zn577       O582   1.988       .  S
Zn577       O584   1.984       .  S
Zn577       O588   2.030       .  S
Zn578       O580   1.927       .  S
Zn578       O583   2.011       .  S
Zn578       O586   2.010       .  S
Zn578       O589   2.035       .  S
Zn579       O580   1.925       .  S
Zn579       O587   2.009       .  S
Zn579       O590   2.033       .  S
Zn579       O591   1.945   1_556  S
O581        C593   1.274       .  A
O582        C594   1.272       .  A
O583        C595   1.273       .  A
O584        C593   1.270       .  A
O585        C595   1.280       .  A
O586        C594   1.276       .  A
O587        C596   1.273       .  A
O588        C597   1.274       .  A
O589        C596   1.276       .  A
O590        C597   1.275       .  A
O591        C598   1.267       .  A
O592        C598   1.281       .  A
C593        C860   1.471       .  S
C594        C968   1.468       .  S
C595       C1793   1.493       .  S
C596       C1496   1.486       .  S
C597       C1085   1.487   1_556  S
C598        C809   1.473       .  S
Zn599       O603   1.943   1_545  S
Zn599       O604   2.067       .  S
Zn599       O608   1.992       .  S
Zn599       O615   2.042       .  S
Zn600       O603   1.920       .  S
Zn600       O605   1.975       .  S
Zn600       O607   1.996       .  S
Zn600       O611   1.986       .  S
Zn601       O603   1.947   1_545  S
Zn601       O606   2.037       .  S
Zn601       O609   2.043       .  S
Zn601       O612   2.052       .  S
Zn602       O603   1.934       .  S
Zn602       O610   2.013       .  S
Zn602       O613   2.002       .  S
Zn602       O614   1.962       .  S
O604        C616   1.280   1_545  A
O605        C617   1.271   1_565  A
O606        C618   1.277       .  A
O607        C616   1.272       .  A
O608        C618   1.273       .  A
O609        C617   1.278       .  A
O610        C619   1.273   1_565  A
O611        C620   1.269       .  A
O612        C619   1.277       .  A
O613        C620   1.272       .  A
O614        C621   1.268       .  A
O615        C621   1.278   1_545  A
C616        C785   1.483       .  S
C617       C1364   1.484       .  S
C618       C1532   1.490       .  S
C619       C1316   1.492       .  S
C620        C800   1.467       .  S
C621        C848   1.473       .  S
Zn622       O626   1.943       .  S
Zn622       O627   2.013       .  S
Zn622       O631   1.976       .  S
Zn622       O638   2.009       .  S
Zn623       O626   1.914       .  S
Zn623       O628   1.986       .  S
Zn623       O630   1.980       .  S
Zn623       O634   1.970       .  S
Zn624       O626   1.930       .  S
Zn624       O629   2.035       .  S
Zn624       O632   2.061       .  S
Zn624       O635   2.015       .  S
Zn625       O626   1.949       .  S
Zn625       O633   2.055       .  S
Zn625       O636   2.043       .  S
Zn625       O637   2.049       .  S
O627        C639   1.274       .  A
O628        C640   1.271       .  A
O629        C641   1.280       .  A
O630        C639   1.265       .  A
O631        C641   1.269       .  A
O632        C640   1.280       .  A
O633        C642   1.280       .  A
O634        C643   1.270       .  A
O635        C642   1.273       .  A
O636        C643   1.278       .  A
O637        C644   1.277       .  A
O638        C644   1.274       .  A
C639        C797   1.485       .  S
C640        C980   1.476       .  S
C641        C812   1.474       .  S
C642       C1592   1.503       .  S
C643       C1772   1.467       .  S
C644       C1685   1.499       .  S
Zn645       O649   1.930       .  S
Zn645       O650   2.014       .  S
Zn645       O654   2.000       .  S
Zn645       O661   1.974       .  S
Zn646       O649   1.929       .  S
Zn646       O651   1.972       .  S
Zn646       O653   2.036       .  S
Zn646       O657   2.038       .  S
Zn647       O649   1.952       .  S
Zn647       O652   2.026       .  S
Zn647       O655   2.041       .  S
Zn647       O658   2.049       .  S
Zn648       O649   1.924       .  S
Zn648       O656   2.020       .  S
Zn648       O659   2.046       .  S
Zn648       O660   2.028       .  S
O650        C662   1.273       .  A
O651        C663   1.271       .  A
O652        C664   1.272       .  A
O653        C662   1.276       .  A
O654        C664   1.272       .  A
O655        C663   1.279       .  A
O656        C665   1.277       .  A
O657        C666   1.277       .  A
O658        C665   1.279       .  A
O659        C666   1.278       .  A
O660        C667   1.278       .  A
O661        C667   1.270       .  A
C662        C872   1.489       .  S
C663        C761   1.470       .  S
C664        C773   1.485       .  S
C665       C1556   1.494       .  S
C666        C992   1.495       .  S
C667        C893   1.471       .  S
Zn668       O672   1.965       .  S
Zn668       O673   2.060       .  S
Zn668       O677   2.019       .  S
Zn668       O684   2.061       .  S
Zn669       O672   1.936   1_565  S
Zn669       O674   2.027       .  S
Zn669       O676   2.022       .  S
Zn669       O680   2.019       .  S
Zn670       O672   1.934       .  S
Zn670       O675   2.002       .  S
Zn670       O678   1.999       .  S
Zn670       O681   2.038       .  S
Zn671       O672   1.932   1_565  S
Zn671       O679   2.043       .  S
Zn671       O682   2.019       .  S
Zn671       O683   1.956       .  S
O673        C685   1.280       .  A
O674        C686   1.276   1_565  A
O675        C687   1.273       .  A
O676        C685   1.276   1_565  A
O677        C687   1.274       .  A
O678        C686   1.273       .  A
O679        C688   1.277   1_565  A
O680        C689   1.275       .  A
O681        C688   1.275       .  A
O682        C689   1.274       .  A
O683        C690   1.269   1_565  A
O684        C690   1.279       .  A
C685        C833   1.486       .  S
C686       C1172   1.472       .  S
C687        C776   1.477       .  S
C688       C1253   1.505       .  S
C689        C956   1.492       .  S
C690        C749   1.479       .  S
Zn691       O695   1.925       .  S
Zn691       O696   2.024       .  S
Zn691       O700   2.028       .  S
Zn691       O707   1.968   1_554  S
Zn692       O695   1.931       .  S
Zn692       O697   1.988       .  S
Zn692       O699   2.025       .  S
Zn692       O703   2.008       .  S
Zn693       O695   1.925       .  S
Zn693       O698   2.026       .  S
Zn693       O701   2.016       .  S
Zn693       O704   1.998       .  S
Zn694       O695   1.952       .  S
Zn694       O702   2.041       .  S
Zn694       O705   2.006       .  S
Zn694       O706   2.034       .  S
O696        C708   1.275       .  A
O697        C709   1.272       .  A
O698        C710   1.274       .  A
O699        C708   1.276       .  A
O700        C710   1.277       .  A
O701        C709   1.275       .  A
O702        C711   1.277       .  A
O703        C712   1.273       .  A
O704        C711   1.273       .  A
O705        C712   1.271       .  A
O706        C713   1.276   1_554  A
O707        C713   1.270       .  A
C708       C1469   1.496   1_654  S
C709       C1541   1.470       .  S
C710       C1028   1.497       .  S
C711        C905   1.497       .  S
C712        C737   1.476       .  S
C713        C764   1.471       .  S
Zn714       O718   1.932   1_545  S
Zn714       O719   2.035       .  S
Zn714       O723   1.998       .  S
Zn714       O730   1.995       .  S
Zn715       O718   1.926       .  S
Zn715       O720   1.968       .  S
Zn715       O722   2.030       .  S
Zn715       O726   2.018       .  S
Zn716       O718   1.955   1_545  S
Zn716       O721   2.019       .  S
Zn716       O724   2.044       .  S
Zn716       O727   2.057       .  S
Zn717       O718   1.932       .  S
Zn717       O725   2.004       .  S
Zn717       O728   2.033       .  S
Zn717       O729   2.017       .  S
O719        C731   1.275   1_545  A
O720        C732   1.269   1_565  A
O721        C733   1.273       .  A
O722        C731   1.276       .  A
O723        C733   1.271       .  A
O724        C732   1.278       .  A
O725        C734   1.274       .  A
O726        C735   1.276       .  A
O727        C734   1.280   1_545  A
O728        C735   1.275       .  A
O729        C736   1.275       .  A
O730        C736   1.274   1_545  A
C731        C788   1.488   1_655  S
C732        C752   1.468       .  S
C733        C740   1.479       .  S
C734       C1181   1.489       .  S
C735       C1076   1.488       .  S
C736        C821   1.477       .  S
C737        C738   1.401       .  A
C737        C742   1.415       .  A
C738        C739   1.397       .  A
C738        H747   1.085       .  S
C739        C740   1.417       .  A
C739        S743   1.803       .  S
C740        C741   1.404       .  A
C741        C742   1.399       .  A
C741        H748   1.084       .  S
C742        S744   1.804       .  S
S743        H746   1.408       .  S
S744        H745   1.407       .  S
C749        C750   1.411       .  A
C749        C754   1.408       .  A
C750        C751   1.395       .  A
C750        H759   1.085       .  S
C751        C752   1.404       .  A
C751        S755   1.802       .  S
C752        C753   1.409       .  A
C753        C754   1.400       .  A
C753        H760   1.085       .  S
C754        S756   1.799       .  S
S755        H758   1.404       .  S
S756        H757   1.406       .  S
C761        C762   1.409       .  A
C761        C766   1.405       .  A
C762        C763   1.398       .  A
C762        H771   1.085       .  S
C763        C764   1.406       .  A
C763        S767   1.800       .  S
C764        C765   1.409       .  A
C765        C766   1.396       .  A
C765        H772   1.085       .  S
C766        S768   1.799       .  S
S767        H770   1.406       .  S
S768        H769   1.406       .  S
C773        C774   1.406       .  A
C773        C778   1.416       .  A
C774        C775   1.396       .  A
C774        H783   1.082       .  S
C775        C776   1.411       .  A
C775        S779   1.805       .  S
C776        C777   1.406       .  A
C777        C778   1.402       .  A
C777        H784   1.084       .  S
C778        S780   1.802       .  S
S779        H782   1.407       .  S
S780        H781   1.407       .  S
C785        C786   1.405       .  A
C785        C790   1.414   1_565  A
C786        C787   1.401       .  A
C786        H795   1.084       .  S
C787        C788   1.414       .  A
C787        S791   1.803       .  S
C788        C789   1.409   1_565  A
C789        C790   1.406       .  A
C789        H796   1.084       .  S
C790        S792   1.804       .  S
S791        H794   1.407       .  S
S792        H793   1.406       .  S
C797        C798   1.406       .  A
C797        C802   1.423       .  A
C798        C799   1.395       .  A
C798        H807   1.083       .  S
C799        C800   1.411       .  A
C799        S803   1.804       .  S
C800        C801   1.398       .  A
C801        C802   1.395       .  A
C801        H808   1.084       .  S
C802        S804   1.803       .  S
S803        H806   1.407       .  S
S804        H805   1.404       .  S
C809        C810   1.403       .  A
C809        C814   1.415       .  A
C810        C811   1.402       .  A
C810        H819   1.084       .  S
C811        C812   1.417       .  A
C811        S815   1.803       .  S
C812        C813   1.401       .  A
C813        C814   1.392       .  A
C813        H820   1.084       .  S
C814        S816   1.807       .  S
S815        H818   1.407       .  S
S816        H817   1.407       .  S
C821        C822   1.408   1_665  A
C821        C826   1.414   1_554  A
C822        C823   1.396   1_554  A
C822        H831   1.083       .  S
C823        C824   1.406       .  A
C823        S827   1.804       .  S
C824        C825   1.402   1_545  A
C825        C826   1.397   1_455  A
C825        H832   1.085       .  S
C826        S828   1.803   1_556  S
S827        H830   1.405       .  S
S828        H829   1.407       .  S
C833        C834   1.404       .  A
C833        C838   1.412   1_545  A
C834        C835   1.408       .  A
C834        H843   1.084       .  S
C835        C836   1.422   1_655  A
C835        S839   1.801   1_655  S
C836        C837   1.409   1_445  A
C837        C838   1.401       .  A
C837        H844   1.084       .  S
C838        S840   1.805       .  S
S839        H842   1.408       .  S
S840        H841   1.407       .  S
C845        C846   1.403   1_565  A
C845        C850   1.411       .  A
C846        C847   1.398       .  A
C846        H855   1.084       .  S
C847        C848   1.414   1_545  A
C847        S851   1.803       .  S
C848        C849   1.405       .  A
C849        C850   1.396       .  A
C849        H856   1.084       .  S
C850        S852   1.804       .  S
S851        H854   1.407       .  S
S852        H853   1.407       .  S
C857        C858   1.400       .  A
C857        C862   1.409       .  A
C858        C859   1.400       .  A
C858        H867   1.084       .  S
C859        C860   1.415       .  A
C859        S863   1.804       .  S
C860        C861   1.403       .  A
C861        C862   1.399       .  A
C861        H868   1.083       .  S
C862        S864   1.808       .  S
S863        H866   1.407       .  S
S864        H865   1.407       .  S
C869        C870   1.410       .  A
C869        C874   1.419       .  A
C870        C871   1.403       .  A
C870        H879   1.081       .  S
C871        C872   1.414       .  A
C871        S875   1.811       .  S
C872        C873   1.406       .  A
C873        C874   1.405       .  A
C873        H880   1.084       .  S
C874        S876   1.801       .  S
S875        H878   1.407       .  S
S876        H877   1.408       .  S
C881        C882   1.410       .  A
C881        C886   1.415       .  A
C882        C883   1.398       .  A
C882        H891   1.083       .  S
C883        C884   1.410       .  A
C883        S887   1.803       .  S
C884        C885   1.406       .  A
C885        C886   1.398       .  A
C885        H892   1.084       .  S
C886        S888   1.800       .  S
S887        H890   1.407       .  S
S888        H889   1.407       .  S
C893        C894   1.399       .  A
C893        C898   1.418       .  A
C894        C895   1.394       .  A
C894        H903   1.084       .  S
C895        C896   1.415       .  A
C895        S899   1.805       .  S
C896        C897   1.399       .  A
C897        C898   1.396       .  A
C897        H904   1.084       .  S
C898        S900   1.803       .  S
S899        H902   1.407       .  S
S900        H901   1.407       .  S
C905        C906   1.411       .  A
C905        C910   1.419       .  A
C906        C907   1.402       .  A
C906        H915   1.080       .  S
C907        C908   1.412       .  A
C907        S911   1.811       .  S
C908        C909   1.406       .  A
C909        C910   1.403       .  A
C909        H916   1.082       .  S
C910        S912   1.800       .  S
S911        H914   1.406       .  S
S912        H913   1.407       .  S
C917        C918   1.401       .  A
C917        C922   1.413       .  A
C918        C919   1.387       .  A
C918        H927   1.085       .  S
C919        C920   1.414       .  A
C919        S923   1.807       .  S
C920        C921   1.406       .  A
C921        C922   1.403       .  A
C921        H928   1.084       .  S
C922        S924   1.802       .  S
S923        H926   1.407       .  S
S924        H925   1.406       .  S
C929        C930   1.404       .  A
C929        C934   1.416       .  A
C930        C931   1.401       .  A
C930        H939   1.084       .  S
C931        C932   1.415       .  A
C931        S935   1.805       .  S
C932        C933   1.403       .  A
C933        C934   1.401       .  A
C933        H940   1.084       .  S
C934        S936   1.804       .  S
S935        H938   1.405       .  S
S936        H937   1.407       .  S
C941        C942   1.399       .  A
C941        C946   1.411       .  A
C942        C943   1.399       .  A
C942        H951   1.085       .  S
C943        C944   1.422       .  A
C943        S947   1.803       .  S
C944        C945   1.408       .  A
C945        C946   1.399       .  A
C945        H952   1.084       .  S
C946        S948   1.805       .  S
S947        H950   1.408       .  S
S948        H949   1.406       .  S
C953        C954   1.404       .  A
C953        C958   1.412       .  A
C954        C955   1.400       .  A
C954        H963   1.085       .  S
C955        C956   1.418       .  A
C955        S959   1.802       .  S
C956        C957   1.409       .  A
C957        C958   1.400       .  A
C957        H964   1.084       .  S
C958        S960   1.803       .  S
S959        H962   1.408       .  S
S960        H961   1.407       .  S
C965        C966   1.401       .  A
C965        C970   1.415       .  A
C966        C967   1.397   1_655  A
C966        H975   1.084       .  S
C967        C968   1.416       .  A
C967        S971   1.805       .  S
C968        C969   1.398       .  A
C969        C970   1.393   1_455  A
C969        H976   1.084       .  S
C970        S972   1.803       .  S
S971        H974   1.407       .  S
S972        H973   1.407       .  S
C977        C978   1.404       .  A
C977        C982   1.418       .  A
C978        C979   1.401       .  A
C978        H987   1.084       .  S
C979        C980   1.414       .  A
C979        S983   1.805       .  S
C980        C981   1.400       .  A
C981        C982   1.403       .  A
C981        H988   1.084       .  S
C982        S984   1.802   1_455  S
S983        H986   1.406       .  S
S984        H985   1.406       .  S
C989        C990   1.408       .  A
C989        C994   1.416       .  A
C990        C991   1.404       .  A
C990        H999   1.083       .  S
C991        C992   1.416       .  A
C991        S995   1.803       .  S
C992        C993   1.408       .  A
C993        C994   1.406       .  A
C993       H1000   1.083       .  S
C994        S996   1.802       .  S
S995        H998   1.407       .  S
S996        H997   1.407       .  S
C1001      C1002   1.401       .  A
C1001      C1006   1.420       .  A
C1002      C1003   1.403       .  A
C1002      H1011   1.082       .  S
C1003      C1004   1.420       .  A
C1003      S1007   1.802       .  S
C1004      C1005   1.403       .  A
C1005      C1006   1.402       .  A
C1005      H1012   1.082       .  S
C1006      S1008   1.805       .  S
S1007      H1010   1.407       .  S
S1008      H1009   1.407       .  S
C1013      C1014   1.409       .  A
C1013      C1018   1.416       .  A
C1014      C1015   1.397       .  A
C1014      H1023   1.083       .  S
C1015      C1016   1.411       .  A
C1015      S1019   1.803       .  S
C1016      C1017   1.403       .  A
C1017      C1018   1.398       .  A
C1017      H1024   1.082       .  S
C1018      S1020   1.800       .  S
S1019      H1022   1.406       .  S
S1020      H1021   1.408       .  S
C1025      C1026   1.401       .  A
C1025      C1030   1.413       .  A
C1026      C1027   1.403       .  A
C1026      H1035   1.084       .  S
C1027      C1028   1.423       .  A
C1027      S1031   1.801       .  S
C1028      C1029   1.408       .  A
C1029      C1030   1.400       .  A
C1029      H1036   1.083       .  S
C1030      S1032   1.805   1_554  S
S1031      H1034   1.408       .  S
S1032      H1033   1.407       .  S
C1037      C1038   1.399       .  A
C1037      C1042   1.420       .  A
C1038      C1039   1.395       .  A
C1038      H1047   1.084       .  S
C1039      C1040   1.418       .  A
C1039      S1043   1.806       .  S
C1040      C1041   1.399       .  A
C1041      C1042   1.398       .  A
C1041      H1048   1.084       .  S
C1042      S1044   1.805       .  S
S1043      H1046   1.407       .  S
S1044      H1045   1.407       .  S
C1049      C1050   1.409       .  A
C1049      C1054   1.413   1_556  A
C1050      C1051   1.405       .  A
C1050      H1059   1.084       .  S
C1051      C1052   1.416       .  A
C1051      S1055   1.802       .  S
C1052      C1053   1.412       .  A
C1053      C1054   1.406   1_556  A
C1053      H1060   1.084       .  S
C1054      S1056   1.799       .  S
S1055      H1058   1.408       .  S
S1056      H1057   1.407       .  S
C1061      C1062   1.403       .  A
C1061      C1066   1.414       .  A
C1062      C1063   1.398       .  A
C1062      H1071   1.084       .  S
C1063      C1064   1.414       .  A
C1063      S1067   1.805       .  S
C1064      C1065   1.402       .  A
C1065      C1066   1.396       .  A
C1065      H1072   1.084       .  S
C1066      S1068   1.804       .  S
S1067      H1070   1.406       .  S
S1068      H1069   1.407       .  S
C1073      C1074   1.404       .  A
C1073      C1078   1.417       .  A
C1074      C1075   1.404       .  A
C1074      H1083   1.084       .  S
C1075      C1076   1.419       .  A
C1075      S1079   1.803       .  S
C1076      C1077   1.404       .  A
C1077      C1078   1.398       .  A
C1077      H1084   1.084       .  S
C1078      S1080   1.804       .  S
S1079      H1082   1.407       .  S
S1080      H1081   1.406       .  S
C1085      C1086   1.403   1_455  A
C1085      C1090   1.419   1_455  A
C1086      C1087   1.401       .  A
C1086      H1095   1.084       .  S
C1087      C1088   1.414       .  A
C1087      S1091   1.805       .  S
C1088      C1089   1.402       .  A
C1089      C1090   1.405       .  A
C1089      H1096   1.084       .  S
C1090      S1092   1.803   1_655  S
S1091      H1094   1.407       .  S
S1092      H1093   1.407       .  S
C1097      C1098   1.402       .  A
C1097      C1102   1.411       .  A
C1098      C1099   1.401       .  A
C1098      H1107   1.084       .  S
C1099      C1100   1.416       .  A
C1099      S1103   1.805       .  S
C1100      C1101   1.399       .  A
C1101      C1102   1.391       .  A
C1101      H1108   1.085       .  S
C1102      S1104   1.805       .  S
S1103      H1106   1.403       .  S
S1104      H1105   1.407       .  S
C1109      C1110   1.405       .  A
C1109      C1114   1.410       .  A
C1110      C1111   1.397       .  A
C1110      H1119   1.085       .  S
C1111      C1112   1.414       .  A
C1111      S1115   1.802       .  S
C1112      C1113   1.408       .  A
C1113      C1114   1.393       .  A
C1113      H1120   1.084       .  S
C1114      S1116   1.804       .  S
S1115      H1118   1.407       .  S
S1116      H1117   1.408       .  S
C1121      C1122   1.406       .  A
C1121      C1126   1.412       .  A
C1122      C1123   1.403       .  A
C1122      H1131   1.084       .  S
C1123      C1124   1.417       .  A
C1123      S1127   1.802       .  S
C1124      C1125   1.408       .  A
C1125      C1126   1.399       .  A
C1125      H1132   1.083       .  S
C1126      S1128   1.804       .  S
S1127      H1130   1.407       .  S
S1128      H1129   1.407       .  S
C1133      C1134   1.404   1_556  A
C1133      C1138   1.412       .  A
C1134      C1135   1.401       .  A
C1134      H1143   1.083       .  S
C1135      C1136   1.415       .  A
C1135      S1139   1.802       .  S
C1136      C1137   1.404   1_554  A
C1137      C1138   1.393       .  A
C1137      H1144   1.083       .  S
C1138      S1140   1.806       .  S
S1139      H1142   1.407       .  S
S1140      H1141   1.407       .  S
C1145      C1146   1.405       .  A
C1145      C1150   1.413       .  A
C1146      C1147   1.405       .  A
C1146      H1155   1.084       .  S
C1147      C1148   1.420       .  A
C1147      S1151   1.801       .  S
C1148      C1149   1.410       .  A
C1149      C1150   1.401       .  A
C1149      H1156   1.084       .  S
C1150      S1152   1.805       .  S
S1151      H1154   1.408       .  S
S1152      H1153   1.407       .  S
C1157      C1158   1.408       .  A
C1157      C1162   1.418       .  A
C1158      C1159   1.398       .  A
C1158      H1167   1.083       .  S
C1159      C1160   1.413       .  A
C1159      S1163   1.804       .  S
C1160      C1161   1.405       .  A
C1161      C1162   1.403       .  A
C1161      H1168   1.084       .  S
C1162      S1164   1.799       .  S
S1163      H1166   1.407       .  S
S1164      H1165   1.407       .  S
C1169      C1170   1.405   1_545  A
C1169      C1174   1.411       .  A
C1170      C1171   1.397       .  A
C1170      H1179   1.084       .  S
C1171      C1172   1.411   1_565  A
C1171      S1175   1.804       .  S
C1172      C1173   1.405       .  A
C1173      C1174   1.399       .  A
C1173      H1180   1.084       .  S
C1174      S1176   1.803       .  S
S1175      H1178   1.407       .  S
S1176      H1177   1.406       .  S
C1181      C1182   1.406       .  A
C1181      C1186   1.415   1_565  A
C1182      C1183   1.399       .  A
C1182      H1191   1.084       .  S
C1183      C1184   1.415       .  A
C1183      S1187   1.804   1_554  S
C1184      C1185   1.408   1_565  A
C1185      C1186   1.406       .  A
C1185      H1192   1.084       .  S
C1186      S1188   1.802       .  S
S1187      H1190   1.407       .  S
S1188      H1189   1.407       .  S
C1193      C1194   1.408       .  A
C1193      C1198   1.413       .  A
C1194      C1195   1.398       .  A
C1194      H1203   1.084       .  S
C1195      C1196   1.411       .  A
C1195      S1199   1.802       .  S
C1196      C1197   1.406       .  A
C1197      C1198   1.398       .  A
C1197      H1204   1.084       .  S
C1198      S1200   1.800       .  S
S1199      H1202   1.406       .  S
S1200      H1201   1.407       .  S
C1205      C1206   1.408       .  A
C1205      C1210   1.425       .  A
C1206      C1207   1.405       .  A
C1206      H1215   1.083       .  S
C1207      C1208   1.418       .  A
C1207      S1211   1.805       .  S
C1208      C1209   1.402       .  A
C1209      C1210   1.404       .  A
C1209      H1216   1.084       .  S
C1210      S1212   1.802       .  S
S1211      H1214   1.407       .  S
S1212      H1213   1.408       .  S
C1217      C1218   1.403       .  A
C1217      C1222   1.419       .  A
C1218      C1219   1.410       .  A
C1218      H1227   1.082       .  S
C1219      C1220   1.421       .  A
C1219      S1223   1.809       .  S
C1220      C1221   1.402       .  A
C1221      C1222   1.401       .  A
C1221      H1228   1.083       .  S
C1222      S1224   1.805       .  S
S1223      H1226   1.407       .  S
S1224      H1225   1.408       .  S
C1229      C1230   1.403       .  A
C1229      C1234   1.414       .  A
C1230      C1231   1.401       .  A
C1230      H1239   1.084       .  S
C1231      C1232   1.415       .  A
C1231      S1235   1.798       .  S
C1232      C1233   1.405       .  A
C1233      C1234   1.398       .  A
C1233      H1240   1.084       .  S
C1234      S1236   1.805       .  S
S1235      H1238   1.407       .  S
S1236      H1237   1.408       .  S
C1241      C1242   1.410       .  A
C1241      C1246   1.421       .  A
C1242      C1243   1.403       .  A
C1242      H1251   1.083       .  S
C1243      C1244   1.414       .  A
C1243      S1247   1.802       .  S
C1244      C1245   1.405       .  A
C1245      C1246   1.402       .  A
C1245      H1252   1.084       .  S
C1246      S1248   1.803       .  S
S1247      H1250   1.407       .  S
S1248      H1249   1.408       .  S
C1253      C1254   1.410   1_545  A
C1253      C1258   1.420       .  A
C1254      C1255   1.408       .  A
C1254      H1263   1.084       .  S
C1255      C1256   1.418       .  A
C1255      S1259   1.802       .  S
C1256      C1257   1.408   1_565  A
C1257      C1258   1.404       .  A
C1257      H1264   1.084       .  S
C1258      S1260   1.800       .  S
S1259      H1262   1.407       .  S
S1260      H1261   1.408       .  S
C1265      C1266   1.404       .  A
C1265      C1270   1.417   1_565  A
C1266      C1267   1.403       .  A
C1266      H1275   1.084       .  S
C1267      C1268   1.416       .  A
C1267      S1271   1.803       .  S
C1268      C1269   1.402   1_565  A
C1269      C1270   1.397       .  A
C1269      H1276   1.084       .  S
C1270      S1272   1.806       .  S
S1271      H1274   1.407       .  S
S1272      H1273   1.407       .  S
C1277      C1278   1.400       .  A
C1277      C1282   1.414       .  A
C1278      C1279   1.397       .  A
C1278      H1287   1.084       .  S
C1279      C1280   1.415       .  A
C1279      S1283   1.805       .  S
C1280      C1281   1.403       .  A
C1281      C1282   1.402       .  A
C1281      H1288   1.084       .  S
C1282      S1284   1.804       .  S
S1283      H1286   1.407       .  S
S1284      H1285   1.406       .  S
C1289      C1290   1.405   1_565  A
C1289      C1294   1.411       .  A
C1290      C1291   1.391       .  A
C1290      H1299   1.084       .  S
C1291      C1292   1.406   1_545  A
C1291      S1295   1.804       .  S
C1292      C1293   1.406       .  A
C1293      C1294   1.400       .  A
C1293      H1300   1.084       .  S
C1294      S1296   1.803       .  S
S1295      H1298   1.407       .  S
S1296      H1297   1.407       .  S
C1301      C1302   1.408       .  A
C1301      C1306   1.426   1_565  A
C1302      C1303   1.407       .  A
C1302      H1311   1.084       .  S
C1303      C1304   1.417       .  A
C1303      S1307   1.804       .  S
C1304      C1305   1.400   1_565  A
C1305      C1306   1.404       .  A
C1305      H1312   1.084       .  S
C1306      S1308   1.802       .  S
S1307      H1310   1.407       .  S
S1308      H1309   1.408       .  S
C1313      C1314   1.403   1_545  A
C1313      C1318   1.421       .  A
C1314      C1315   1.404       .  A
C1314      H1323   1.082       .  S
C1315      C1316   1.420   1_565  A
C1315      S1319   1.803       .  S
C1316      C1317   1.403       .  A
C1317      C1318   1.404       .  A
C1317      H1324   1.082       .  S
C1318      S1320   1.804       .  S
S1319      H1322   1.407       .  S
S1320      H1321   1.408       .  S
C1325      C1326   1.408       .  A
C1325      C1330   1.411       .  A
C1326      C1327   1.394       .  A
C1326      H1335   1.084       .  S
C1327      C1328   1.409       .  A
C1327      S1331   1.804       .  S
C1328      C1329   1.406       .  A
C1329      C1330   1.393       .  A
C1329      H1336   1.084       .  S
C1330      S1332   1.803       .  S
S1331      H1334   1.407       .  S
S1332      H1333   1.407       .  S
C1337      C1338   1.407       .  A
C1337      C1342   1.423       .  A
C1338      C1339   1.397       .  A
C1338      H1347   1.083       .  S
C1339      C1340   1.413       .  A
C1339      S1343   1.807       .  S
C1340      C1341   1.402       .  A
C1341      C1342   1.406       .  A
C1341      H1348   1.084       .  S
C1342      S1344   1.801       .  S
S1343      H1346   1.407       .  S
S1344      H1345   1.407       .  S
C1349      C1350   1.404       .  A
C1349      C1354   1.413       .  A
C1350      C1351   1.395       .  A
C1350      H1359   1.085       .  S
C1351      C1352   1.414       .  A
C1351      S1355   1.801       .  S
C1352      C1353   1.407       .  A
C1353      C1354   1.399       .  A
C1353      H1360   1.084       .  S
C1354      S1356   1.800       .  S
S1355      H1358   1.404       .  S
S1356      H1357   1.407       .  S
C1361      C1362   1.409   1_565  A
C1361      C1366   1.410       .  A
C1362      C1363   1.398       .  A
C1362      H1371   1.080       .  S
C1363      C1364   1.411       .  A
C1363      S1367   1.803       .  S
C1364      C1365   1.411   1_545  A
C1365      C1366   1.397       .  A
C1365      H1372   1.082       .  S
C1366      S1368   1.803       .  S
S1367      H1370   1.408       .  S
S1368      H1369   1.407       .  S
C1373      C1374   1.401       .  A
C1373      C1378   1.412   1_565  A
C1374      C1375   1.404       .  A
C1374      H1383   1.084       .  S
C1375      C1376   1.422       .  A
C1375      S1379   1.803       .  S
C1376      C1377   1.406   1_565  A
C1377      C1378   1.401       .  A
C1377      H1384   1.084       .  S
C1378      S1380   1.804       .  S
S1379      H1382   1.408       .  S
S1380      H1381   1.407       .  S
C1385      C1386   1.402       .  A
C1385      C1390   1.420   1_565  A
C1386      C1387   1.401       .  A
C1386      H1395   1.084   1_556  S
C1387      C1388   1.420       .  A
C1387      S1391   1.804       .  S
C1388      C1389   1.403   1_565  A
C1389      C1390   1.407       .  A
C1389      H1396   1.083       .  S
C1390      S1392   1.811       .  S
S1391      H1394   1.408       .  S
S1392      H1393   1.407       .  S
C1397      C1398   1.403   1_545  A
C1397      C1402   1.415       .  A
C1398      C1399   1.397       .  A
C1398      H1407   1.084       .  S
C1399      C1400   1.413   1_565  A
C1399      S1403   1.804       .  S
C1400      C1401   1.402       .  A
C1401      C1402   1.398       .  A
C1401      H1408   1.084       .  S
C1402      S1404   1.804       .  S
S1403      H1406   1.407       .  S
S1404      H1405   1.407       .  S
C1409      C1410   1.405       .  A
C1409      C1414   1.411       .  A
C1410      C1411   1.403       .  A
C1410      H1419   1.084       .  S
C1411      C1412   1.414       .  A
C1411      S1415   1.798       .  S
C1412      C1413   1.408       .  A
C1413      C1414   1.401       .  A
C1413      H1420   1.084       .  S
C1414      S1416   1.804   1_554  S
S1415      H1418   1.407       .  S
S1416      H1417   1.407       .  S
C1421      C1422   1.402       .  A
C1421      C1426   1.413       .  A
C1422      C1423   1.401       .  A
C1422      H1431   1.084       .  S
C1423      C1424   1.415       .  A
C1423      S1427   1.799       .  S
C1424      C1425   1.403       .  A
C1425      C1426   1.392       .  A
C1425      H1432   1.085       .  S
C1426      S1428   1.806       .  S
S1427      H1430   1.407       .  S
S1428      H1429   1.408       .  S
C1433      C1434   1.404       .  A
C1433      C1438   1.422       .  A
C1434      C1435   1.395       .  A
C1434      H1443   1.083       .  S
C1435      C1436   1.414       .  A
C1435      S1439   1.801       .  S
C1436      C1437   1.400       .  A
C1437      C1438   1.396       .  A
C1437      H1444   1.083       .  S
C1438      S1440   1.804       .  S
S1439      H1442   1.408       .  S
S1440      H1441   1.407       .  S
C1445      C1446   1.409       .  A
C1445      C1450   1.420       .  A
C1446      C1447   1.403       .  A
C1446      H1455   1.084       .  S
C1447      C1448   1.413       .  A
C1447      S1451   1.802       .  S
C1448      C1449   1.403       .  A
C1449      C1450   1.401       .  A
C1449      H1456   1.085       .  S
C1450      S1452   1.803       .  S
S1451      H1454   1.407       .  S
S1452      H1453   1.408       .  S
C1457      C1458   1.405       .  A
C1457      C1462   1.409       .  A
C1458      C1459   1.397   1_556  A
C1458      H1467   1.084       .  S
C1459      C1460   1.408       .  A
C1459      S1463   1.803       .  S
C1460      C1461   1.406       .  A
C1461      C1462   1.396   1_554  A
C1461      H1468   1.084       .  S
C1462      S1464   1.804       .  S
S1463      H1466   1.407       .  S
S1464      H1465   1.407       .  S
C1469      C1470   1.409       .  A
C1469      C1474   1.421       .  A
C1470      C1471   1.400       .  A
C1470      H1479   1.084       .  S
C1471      C1472   1.412       .  A
C1471      S1475   1.805       .  S
C1472      C1473   1.403       .  A
C1473      C1474   1.404       .  A
C1473      H1480   1.085       .  S
C1474      S1476   1.802       .  S
S1475      H1478   1.407       .  S
S1476      H1477   1.407   1_556  S
C1481      C1482   1.407       .  A
C1481      C1486   1.422       .  A
C1482      C1483   1.403       .  A
C1482      H1491   1.084       .  S
C1483      C1484   1.415       .  A
C1483      S1487   1.802       .  S
C1484      C1485   1.404       .  A
C1485      C1486   1.408       .  A
C1485      H1492   1.084       .  S
C1486      S1488   1.803       .  S
S1487      H1490   1.407       .  S
S1488      H1489   1.408       .  S
C1493      C1494   1.411       .  A
C1493      C1498   1.420       .  A
C1494      C1495   1.401       .  A
C1494      H1503   1.083       .  S
C1495      C1496   1.412       .  A
C1495      S1499   1.803       .  S
C1496      C1497   1.405       .  A
C1497      C1498   1.401       .  A
C1497      H1504   1.084       .  S
C1498      S1500   1.803   1_556  S
S1499      H1502   1.407       .  S
S1500      H1501   1.408   1_554  S
C1505      C1506   1.406       .  A
C1505      C1510   1.416       .  A
C1506      C1507   1.409       .  A
C1506      H1515   1.084       .  S
C1507      C1508   1.420       .  A
C1507      S1511   1.801   1_455  S
C1508      C1509   1.407       .  A
C1509      C1510   1.402       .  A
C1509      H1516   1.084       .  S
C1510      S1512   1.805       .  S
S1511      H1514   1.407       .  S
S1512      H1513   1.407       .  S
C1517      C1518   1.410       .  A
C1517      C1522   1.418       .  A
C1518      C1519   1.399       .  A
C1518      H1527   1.084       .  S
C1519      C1520   1.412       .  A
C1519      S1523   1.804       .  S
C1520      C1521   1.407       .  A
C1521      C1522   1.405       .  A
C1521      H1528   1.085       .  S
C1522      S1524   1.802       .  S
S1523      H1526   1.407       .  S
S1524      H1525   1.407       .  S
C1529      C1530   1.405       .  A
C1529      C1534   1.410       .  A
C1530      C1531   1.401       .  A
C1530      H1539   1.085       .  S
C1531      C1532   1.417       .  A
C1531      S1535   1.802       .  S
C1532      C1533   1.410       .  A
C1533      C1534   1.396       .  A
C1533      H1540   1.084       .  S
C1534      S1536   1.804       .  S
S1535      H1538   1.408       .  S
S1536      H1537   1.407       .  S
C1541      C1542   1.401       .  A
C1541      C1546   1.418       .  A
C1542      C1543   1.395   1_655  A
C1542      H1551   1.084       .  S
C1543      C1544   1.413       .  A
C1543      S1547   1.806       .  S
C1544      C1545   1.397       .  A
C1545      C1546   1.396   1_455  A
C1545      H1552   1.084       .  S
C1546      S1548   1.805       .  S
S1547      H1550   1.407       .  S
S1548      H1549   1.408       .  S
C1553      C1554   1.406   1_455  A
C1553      C1558   1.414   1_455  A
C1554      C1555   1.406       .  A
C1554      H1563   1.084   1_655  S
C1555      C1556   1.419       .  A
C1555      S1559   1.802       .  S
C1556      C1557   1.407       .  A
C1557      C1558   1.400       .  A
C1557      H1564   1.084       .  S
C1558      S1560   1.804       .  S
S1559      H1562   1.407       .  S
S1560      H1561   1.407       .  S
C1565      C1566   1.406       .  A
C1565      C1570   1.416       .  A
C1566      C1567   1.401       .  A
C1566      H1575   1.084       .  S
C1567      C1568   1.411       .  A
C1567      S1571   1.804       .  S
C1568      C1569   1.406       .  A
C1569      C1570   1.408       .  A
C1569      H1576   1.084       .  S
C1570      S1572   1.802       .  S
S1571      H1574   1.407       .  S
S1572      H1573   1.406       .  S
C1577      C1578   1.403       .  A
C1577      C1582   1.411       .  A
C1578      C1579   1.399       .  A
C1578      H1587   1.084       .  S
C1579      C1580   1.411       .  A
C1579      S1583   1.800       .  S
C1580      C1581   1.403       .  A
C1581      C1582   1.394       .  A
C1581      H1588   1.084       .  S
C1582      S1584   1.806       .  S
S1583      H1586   1.406       .  S
S1584      H1585   1.407       .  S
C1589      C1590   1.401       .  A
C1589      C1594   1.417       .  A
C1590      C1591   1.402       .  A
C1590      H1599   1.084       .  S
C1591      C1592   1.425       .  A
C1591      S1595   1.802       .  S
C1592      C1593   1.408       .  A
C1593      C1594   1.404       .  A
C1593      H1600   1.083       .  S
C1594      S1596   1.805       .  S
S1595      H1598   1.408       .  S
S1596      H1597   1.407       .  S
C1601      C1602   1.411       .  A
C1601      C1606   1.410   1_655  A
C1602      C1603   1.397   1_655  A
C1602      H1611   1.082       .  S
C1603      C1604   1.409       .  A
C1603      S1607   1.802       .  S
C1604      C1605   1.410       .  A
C1605      C1606   1.398       .  A
C1605      H1612   1.081       .  S
C1606      S1608   1.803       .  S
S1607      H1610   1.407       .  S
S1608      H1609   1.407   1_455  S
C1613      C1614   1.404   1_455  A
C1613      C1618   1.424       .  A
C1614      C1615   1.402       .  A
C1614      H1623   1.085       .  S
C1615      C1616   1.419       .  A
C1615      S1619   1.805       .  S
C1616      C1617   1.401       .  A
C1617      C1618   1.405   1_655  A
C1617      H1624   1.085       .  S
C1618      S1620   1.803       .  S
S1619      H1622   1.407       .  S
S1620      H1621   1.408       .  S
C1625      C1626   1.400       .  A
C1625      C1630   1.416       .  A
C1626      C1627   1.396       .  A
C1626      H1635   1.084       .  S
C1627      C1628   1.416       .  A
C1627      S1631   1.806       .  S
C1628      C1629   1.404       .  A
C1629      C1630   1.404       .  A
C1629      H1636   1.084       .  S
C1630      S1632   1.803       .  S
S1631      H1634   1.407       .  S
S1632      H1633   1.407       .  S
C1637      C1638   1.406       .  A
C1637      C1642   1.418       .  A
C1638      C1639   1.394       .  A
C1638      H1647   1.084       .  S
C1639      C1640   1.410       .  A
C1639      S1643   1.806       .  S
C1640      C1641   1.398       .  A
C1641      C1642   1.395       .  A
C1641      H1648   1.084       .  S
C1642      S1644   1.804       .  S
S1643      H1646   1.406       .  S
S1644      H1645   1.408       .  S
C1649      C1650   1.412       .  A
C1649      C1654   1.415       .  A
C1650      C1651   1.403       .  A
C1650      H1659   1.083       .  S
C1651      C1652   1.416       .  A
C1651      S1655   1.801       .  S
C1652      C1653   1.411       .  A
C1653      C1654   1.401       .  A
C1653      H1660   1.083       .  S
C1654      S1656   1.800       .  S
S1655      H1658   1.408       .  S
S1656      H1657   1.408       .  S
C1661      C1662   1.410       .  A
C1661      C1666   1.412       .  A
C1662      C1663   1.398       .  A
C1662      H1671   1.083       .  S
C1663      C1664   1.410       .  A
C1663      S1667   1.803       .  S
C1664      C1665   1.408       .  A
C1665      C1666   1.396       .  A
C1665      H1672   1.083       .  S
C1666      S1668   1.803       .  S
S1667      H1670   1.407       .  S
S1668      H1669   1.407       .  S
C1673      C1674   1.409       .  A
C1673      C1678   1.420       .  A
C1674      C1675   1.407       .  A
C1674      H1683   1.083       .  S
C1675      C1676   1.414       .  A
C1675      S1679   1.803       .  S
C1676      C1677   1.403       .  A
C1677      C1678   1.401       .  A
C1677      H1684   1.084       .  S
C1678      S1680   1.804   1_556  S
S1679      H1682   1.407       .  S
S1680      H1681   1.407       .  S
C1685      C1686   1.413       .  A
C1685      C1690   1.418       .  A
C1686      C1687   1.403       .  A
C1686      H1695   1.084       .  S
C1687      C1688   1.412       .  A
C1687      S1691   1.804       .  S
C1688      C1689   1.405       .  A
C1689      C1690   1.402       .  A
C1689      H1696   1.084       .  S
C1690      S1692   1.799       .  S
S1691      H1694   1.407       .  S
S1692      H1693   1.408       .  S
C1697      C1698   1.402       .  A
C1697      C1702   1.415       .  A
C1698      C1699   1.400       .  A
C1698      H1707   1.084       .  S
C1699      C1700   1.413       .  A
C1699      S1703   1.804       .  S
C1700      C1701   1.401       .  A
C1701      C1702   1.401       .  A
C1701      H1708   1.084       .  S
C1702      S1704   1.804       .  S
S1703      H1706   1.406       .  S
S1704      H1705   1.407       .  S
C1709      C1710   1.407       .  A
C1709      C1714   1.409       .  A
C1710      C1711   1.398   1_556  A
C1710      H1719   1.084       .  S
C1711      C1712   1.409       .  A
C1711      S1715   1.804       .  S
C1712      C1713   1.405       .  A
C1713      C1714   1.395   1_554  A
C1713      H1720   1.084       .  S
C1714      S1716   1.803       .  S
S1715      H1718   1.406       .  S
S1716      H1717   1.406       .  S
C1721      C1722   1.407       .  A
C1721      C1726   1.413       .  A
C1722      C1723   1.407       .  A
C1722      H1731   1.085       .  S
C1723      C1724   1.421       .  A
C1723      S1727   1.801       .  S
C1724      C1725   1.412       .  A
C1725      C1726   1.404       .  A
C1725      H1732   1.083       .  S
C1726      S1728   1.810   1_554  S
S1727      H1730   1.408       .  S
S1728      H1729   1.406       .  S
C1733      C1734   1.402       .  A
C1733      C1738   1.414       .  A
C1734      C1735   1.406       .  A
C1734      H1743   1.084       .  S
C1735      C1736   1.423       .  A
C1735      S1739   1.800       .  S
C1736      C1737   1.408       .  A
C1737      C1738   1.402       .  A
C1737      H1744   1.083       .  S
C1738      S1740   1.805       .  S
S1739      H1742   1.408       .  S
S1740      H1741   1.407       .  S
C1745      C1746   1.408       .  A
C1745      C1750   1.415       .  A
C1746      C1747   1.397       .  A
C1746      H1755   1.083       .  S
C1747      C1748   1.412       .  A
C1747      S1751   1.804       .  S
C1748      C1749   1.406       .  A
C1749      C1750   1.399       .  A
C1749      H1756   1.084       .  S
C1750      S1752   1.800       .  S
S1751      H1754   1.407       .  S
S1752      H1753   1.407       .  S
C1757      C1758   1.410       .  A
C1757      C1762   1.417       .  A
C1758      C1759   1.397       .  A
C1758      H1767   1.083       .  S
C1759      C1760   1.415       .  A
C1759      S1763   1.803       .  S
C1760      C1761   1.409       .  A
C1761      C1762   1.403       .  A
C1761      H1768   1.084       .  S
C1762      S1764   1.800       .  S
S1763      H1766   1.408       .  S
S1764      H1765   1.408       .  S
C1769      C1770   1.397       .  A
C1769      C1774   1.417       .  A
C1770      C1771   1.395       .  A
C1770      H1779   1.084       .  S
C1771      C1772   1.416       .  A
C1771      S1775   1.805       .  S
C1772      C1773   1.398       .  A
C1773      C1774   1.399       .  A
C1773      H1780   1.084       .  S
C1774      S1776   1.806       .  S
S1775      H1778   1.407       .  S
S1776      H1777   1.407       .  S
C1781      C1782   1.415       .  A
C1781      C1786   1.418       .  A
C1782      C1783   1.408       .  A
C1782      H1791   1.083       .  S
C1783      C1784   1.412       .  A
C1783      S1787   1.804       .  S
C1784      C1785   1.406       .  A
C1785      C1786   1.402       .  A
C1785      H1792   1.084       .  S
C1786      S1788   1.799       .  S
S1787      H1790   1.406       .  S
S1788      H1789   1.408       .  S
C1793      C1794   1.407       .  A
C1793      C1798   1.418       .  A
C1794      C1795   1.409       .  A
C1794      H1803   1.084       .  S
C1795      C1796   1.417       .  A
C1795      S1799   1.802       .  S
C1796      C1797   1.404       .  A
C1797      C1798   1.400       .  A
C1797      H1804   1.084       .  S
C1798      S1800   1.805       .  S
S1799      H1802   1.407       .  S
S1800      H1801   1.408       .  S
C1805      C1806   1.405       .  A
C1805      C1810   1.413       .  A
C1806      C1807   1.397       .  A
C1806      H1815   1.085       .  S
C1807      C1808   1.411       .  A
C1807      S1811   1.804       .  S
C1808      C1809   1.404       .  A
C1809      C1810   1.399       .  A
C1809      H1816   1.084       .  S
C1810      S1812   1.803       .  S
S1811      H1814   1.407       .  S
S1812      H1813   1.407       .  S
C1817      C1818   1.401       .  A
C1817      C1822   1.411       .  A
C1818      C1819   1.402       .  A
C1818      H1827   1.085       .  S
C1819      C1820   1.422       .  A
C1819      S1823   1.800       .  S
C1820      C1821   1.410       .  A
C1821      C1822   1.400       .  A
C1821      H1828   1.084       .  S
C1822      S1824   1.805       .  S
S1823      H1826   1.408       .  S
S1824      H1825   1.406       .  S
C1829      C1830   1.402       .  A
C1829      C1834   1.408       .  A
C1830      C1831   1.399       .  A
C1830      H1839   1.084       .  S
C1831      C1832   1.414       .  A
C1831      S1835   1.802       .  S
C1832      C1833   1.409       .  A
C1833      C1834   1.398       .  A
C1833      H1840   1.084       .  S
C1834      S1836   1.805       .  S
S1835      H1838   1.407       .  S
S1836      H1837   1.406       .  S
C1841      C1842   1.406       .  A
C1841      C1846   1.419       .  A
C1842      C1843   1.403       .  A
C1842      H1851   1.084       .  S
C1843      C1844   1.412       .  A
C1843      S1847   1.805       .  S
C1844      C1845   1.403       .  A
C1845      C1846   1.407       .  A
C1845      H1852   1.084       .  S
C1846      S1848   1.801       .  S
S1847      H1850   1.406       .  S
S1848      H1849   1.406       .  S
C1853      C1854   1.405       .  A
C1853      C1858   1.422       .  A
C1854      C1855   1.403       .  A
C1854      H1863   1.084       .  S
C1855      C1856   1.418       .  A
C1855      S1859   1.804       .  S
C1856      C1857   1.401       .  A
C1857      C1858   1.402       .  A
C1857      H1864   1.084       .  S
C1858      S1860   1.800       .  S
S1859      H1862   1.407       .  S
S1860      H1861   1.408       .  S
C1865      C1866   1.412       .  A
C1865      C1870   1.410       .  A
C1866      C1867   1.399       .  A
C1866      H1875   1.083       .  S
C1867      C1868   1.407       .  A
C1867      S1871   1.802       .  S
C1868      C1869   1.410       .  A
C1869      C1870   1.395       .  A
C1869      H1876   1.085       .  S
C1870      S1872   1.803       .  S
S1871      H1874   1.407       .  S
S1872      H1873   1.407       .  S
C1877      C1878   1.406       .  A
C1877      C1882   1.413       .  A
C1878      C1879   1.394       .  A
C1878      H1887   1.084       .  S
C1879      C1880   1.413       .  A
C1879      S1883   1.804       .  S
C1880      C1881   1.405       .  A
C1881      C1882   1.396       .  A
C1881      H1888   1.084       .  S
C1882      S1884   1.803       .  S
S1883      H1886   1.407       .  S
S1884      H1885   1.408       .  S
