geometry optimzed in LAMMPS
_audit_creation_date              2020-12-01 
_audit_creation_method            'lammps2cif' 
_symmetry_space_group_name_H-M    'P1' 
_symmetry_Int_Tables_number       1 
_symmetry_cell_setting            triclinic 
loop_ 
_symmetry_equiv_pos_as_xyz 
  x,y,z 
_cell_length_a                    48.47309147 
_cell_length_b                    29.16512102754261 
_cell_length_c                    59.260859899986144 
_cell_angle_alpha                 89.83061995639616 
_cell_angle_beta                  90.19730822879595 
_cell_angle_gamma                 90.09576420401132 
loop_ 
_atom_site_label 
_atom_site_type_symbol 
_atom_site_fract_x 
_atom_site_fract_y 
_atom_site_fract_z 
_atom_site_charge 
Fe1        Fe  0.84239840  0.90760718  0.37176550     1.65800
Fe2        Fe  0.84333863  0.80675459  0.40155591     1.73200
Fe3        Fe  0.78560783  0.83744463  0.37216333     1.54400
O4          O  0.77184442  0.90429637  0.37401787    -0.81400
O5          O  0.83322075  0.74958129  0.38257230    -0.79700
O6          O  0.80836016  0.94940227  0.37576728    -0.83900
O7          O  0.83223684  0.89478719  0.33851333    -0.78700
O8          O  0.77208278  0.82708561  0.40495880    -0.80500
O9          O  0.88033930  0.81057399  0.38465353    -0.83300
C10         C  0.81462988  0.86969587  0.32838965     0.97500
C11         C  0.78244734  0.94382667  0.37543520     1.04900
O12         O  0.82382575  0.85063421  0.38178193    -1.12200
O13         O  0.85472575  0.85839667  0.42333933    -0.74700
O14         O  0.85384353  0.92467695  0.40429066    -0.78200
O15         O  0.79651478  0.84591239  0.33870327    -0.78900
C16         C  0.85728933  0.90170757  0.42234101     0.96400
O17         O  0.87998159  0.87661112  0.36605581    -0.76800
O18         O  0.80937056  0.79690616  0.42147521    -0.82000
C19         C  0.81058513  0.73875078  0.37313738     0.99000
C20         C  0.78403069  0.80750298  0.42152635     1.04900
O21         O  0.79196970  0.76801911  0.36895974    -0.77600
C22         C  0.89202058  0.84015509  0.37223711     1.03200
Fe23       Fe  0.84465399  0.07826537  0.61579323     1.65800
Fe24       Fe  0.84539288  0.17347346  0.58396596     1.73200
Fe25       Fe  0.78757416  0.14474780  0.61258784     1.54400
O26         O  0.77463498  0.07929529  0.60439284    -0.81400
O27         O  0.82608493  0.23284570  0.59562490    -0.79700
O28         O  0.80935179  0.03717674  0.61712166    -0.83900
O29         O  0.83835560  0.09926215  0.64813872    -0.78700
O30         O  0.77669153  0.16663136  0.57994830    -0.80500
O31         O  0.87705621  0.18283540  0.60662102    -0.83300
C32         C  0.81640996  0.11345885  0.65744920     0.97500
C33         C  0.78446441  0.04094134  0.61049810     1.04900
O34         O  0.82572138  0.13247928  0.60427609    -1.12200
O35         O  0.86617257  0.12007610  0.56802352    -0.74700
O36         O  0.85093529  0.05536582  0.58365196    -0.78200
O37         O  0.79511309  0.12589665  0.64621024    -0.78900
C38         C  0.86167887  0.07705843  0.56732733     0.96400
O39         O  0.88344491  0.11013191  0.61640174    -0.76800
O40         O  0.81562821  0.16650522  0.56008095    -0.82000
C41         C  0.80763992  0.24258968  0.61006273     0.99000
C42         C  0.78977358  0.17183318  0.56143606     1.04900
O43         O  0.79571842  0.21157987  0.62150624    -0.77600
C44         C  0.89232283  0.15107610  0.61422379     1.03200
Fe45       Fe  0.14776521  0.92506335  0.37321163     1.65800
Fe46       Fe  0.14197373  0.83069097  0.40552822     1.73200
Fe47       Fe  0.20243981  0.85377193  0.37898411     1.54400
O48         O  0.19710480  0.87124723  0.34488322    -0.81400
O49         O  0.17091326  0.83359606  0.43053663    -0.79700
O50         O  0.15529326  0.90328084  0.34097696    -0.83900
O51         O  0.18394818  0.96285990  0.37299854    -0.78700
O52         O  0.19297051  0.78704709  0.37058612    -0.80500
O53         O  0.12276974  0.88647862  0.42082421    -0.83300
C54         C  0.20820485  0.95749465  0.38062198     0.97500
C55         C  0.17728101  0.88657112  0.33271414     1.04900
O56         O  0.16420665  0.86935685  0.38570815    -1.12200
O57         O  0.11097223  0.82466182  0.38194285    -0.74700
O58         O  0.10811335  0.89748563  0.37143862    -0.78200
O59         O  0.21693049  0.91854615  0.38688979    -0.78900
C60         C  0.09756111  0.85772016  0.37341374     0.96400
O61         O  0.14098906  0.94887477  0.40513554    -0.76800
O62         O  0.15902777  0.76950200  0.39425957    -0.82000
C63         C  0.19691333  0.82894753  0.43033114     0.99000
C64         C  0.17824023  0.75782502  0.38091148     1.04900
O65         O  0.21108489  0.83352908  0.41231831    -0.77600
C66         C  0.12936966  0.92871292  0.42154895     1.03200
Fe67       Fe  0.15049678  0.09187543  0.61963536     1.65800
Fe68       Fe  0.14615220  0.18967031  0.58985153     1.73200
Fe69       Fe  0.20561880  0.16305295  0.61816042     1.54400
O70         O  0.19806737  0.14300779  0.65136355    -0.81400
O71         O  0.17704116  0.19252897  0.56649348    -0.79700
O72         O  0.15568159  0.11209130  0.65248337    -0.83900
O73         O  0.18650712  0.05443565  0.62135730    -0.78700
O74         O  0.19607958  0.22958081  0.62704853    -0.80500
O75         O  0.12952230  0.13530289  0.57171762    -0.83300
C76         C  0.21121233  0.05937548  0.61499856     0.97500
C77         C  0.17703655  0.12836449  0.66215457     1.04900
O78         O  0.16760427  0.14870271  0.60928507    -1.12200
O79         O  0.11249459  0.19130432  0.61116630    -0.74700
O80         O  0.11074433  0.11760946  0.61970673    -0.78200
O81         O  0.22077308  0.09855908  0.60990919    -0.78900
C82         C  0.09908781  0.15619564  0.61738434     0.96400
O83         O  0.14544808  0.07055370  0.58680404    -0.76800
O84         O  0.16108345  0.24904357  0.60464449    -0.82000
C85         C  0.20307868  0.19483211  0.56809056     0.99000
C86         C  0.18037916  0.25960756  0.61823575     1.04900
O87         O  0.21632757  0.18573473  0.58613830    -0.77600
C88         C  0.13466732  0.09260224  0.57045106     1.03200
Fe89       Fe  0.34187209  0.42279765  0.37275054     1.65800
Fe90       Fe  0.34534691  0.33127353  0.40681355     1.73200
Fe91       Fe  0.28580486  0.35497415  0.37850569     1.54400
O92         O  0.27230097  0.42106005  0.38519391    -0.81400
O93         O  0.32817109  0.27017838  0.39560267    -0.79700
O94         O  0.30619125  0.46144240  0.37021721    -0.83900
O95         O  0.33531718  0.39677765  0.34111777    -0.78700
O96         O  0.27588062  0.33640346  0.41156288    -0.80500
O97         O  0.37735876  0.32258564  0.38455924    -0.83300
C98         C  0.31319717  0.38083917  0.33250999     0.97500
C99         C  0.28186538  0.45877441  0.37785034     1.04900
O100        O  0.32416143  0.36920587  0.38595970    -1.12200
O101        O  0.36437990  0.38776427  0.42177446    -0.74700
O102        O  0.34816442  0.44979686  0.40430641    -0.78200
O103        O  0.29220298  0.37012981  0.34440297    -0.78900
C104        C  0.35901739  0.43054379  0.42141017     0.96400
O105        O  0.38116673  0.39447780  0.37305500    -0.76800
O106        O  0.31558827  0.33627470  0.43076229    -0.82000
C107        C  0.30916316  0.25825456  0.38199741     0.99000
C108        C  0.28964528  0.33140048  0.42977113     1.04900
O109        O  0.29455337  0.28736640  0.37138273    -0.77600
C110        C  0.39146209  0.35495488  0.37623364     1.03200
Fe111      Fe  0.33987540  0.58976645  0.61992030     1.65800
Fe112      Fe  0.34265034  0.68538448  0.58849940     1.73200
Fe113      Fe  0.28584639  0.66310003  0.62024306     1.54400
O114        O  0.26906012  0.59935986  0.61278515    -0.81400
O115        O  0.32738457  0.74636319  0.60151690    -0.79700
O116        O  0.30359299  0.55358982  0.62258460    -0.83900
O117        O  0.33683897  0.60994308  0.65286424    -0.78700
O118        O  0.27350095  0.68689210  0.58832690    -0.80500
O119        O  0.37637738  0.68990761  0.60973285    -0.83300
C120        C  0.31617061  0.62578527  0.66340654     0.97500
C121        C  0.27854542  0.55985142  0.61736547     1.04900
O122        O  0.32258322  0.64636317  0.60963375    -1.12200
O123        O  0.35997755  0.63011122  0.57138385    -0.74700
O124        O  0.34317567  0.56685135  0.58731993    -0.78200
O125        O  0.29498645  0.64218072  0.65332898    -0.78900
C126        C  0.35461271  0.58738488  0.57092945     0.96400
O127        O  0.37940893  0.61634449  0.61900858    -0.76800
O128        O  0.31055960  0.68367518  0.56595569    -0.82000
C129        C  0.31087752  0.75814115  0.61708437     0.99000
C130        C  0.28503178  0.69078857  0.56905034     1.04900
O131        O  0.29792336  0.72871678  0.62880564    -0.77600
C132        C  0.39005691  0.65595260  0.61711202     1.03200
Fe133      Fe  0.64787373  0.40912714  0.36974966     1.65800
Fe134      Fe  0.64489594  0.31487499  0.40234022     1.73200
Fe135      Fe  0.70274983  0.33838966  0.37241216     1.54400
O136        O  0.69636340  0.35996731  0.33917274    -0.81400
O137        O  0.67560674  0.31935302  0.42592146    -0.79700
O138        O  0.65340233  0.38761830  0.33702478    -0.83900
O139        O  0.68431145  0.44672505  0.36850120    -0.78700
O140        O  0.69142768  0.27305439  0.36295077    -0.80500
O141        O  0.62565765  0.36981296  0.41831906    -0.83300
C142        C  0.70882700  0.44121986  0.37566266     0.97500
C143        C  0.67549241  0.37352804  0.32782493     1.04900
O144        O  0.66524198  0.35382578  0.38135670    -1.12200
O145        O  0.61247098  0.30784823  0.38024888    -0.74700
O146        O  0.60832548  0.38052357  0.36951319    -0.78200
O147        O  0.71797602  0.40207128  0.38127391    -0.78900
C148        C  0.59813875  0.34070579  0.37256131     0.96400
O149        O  0.64260822  0.43278780  0.40210554    -0.76800
O150        O  0.66214957  0.25433841  0.39028602    -0.82000
C151        C  0.70102711  0.31083713  0.42340660     0.99000
C152        C  0.67903794  0.24322412  0.37483764     1.04900
O153        O  0.71318469  0.31415232  0.40443593    -0.77600
C154        C  0.63145993  0.41234139  0.41867658     1.03200
Fe155      Fe  0.64097708  0.57792466  0.61443064     1.65800
Fe156      Fe  0.64045090  0.67354154  0.58259528     1.73200
Fe157      Fe  0.69840993  0.64383957  0.61086901     1.54400
O158        O  0.69223231  0.62237216  0.64419274    -0.81400
O159        O  0.66976787  0.66603407  0.55851221    -0.79700
O160        O  0.64885939  0.59699946  0.64716014    -0.83900
O161        O  0.67602235  0.53653921  0.61456500    -0.78700
O162        O  0.69011613  0.70988074  0.62097131    -0.80500
O163        O  0.61861260  0.62101492  0.56666264    -0.83300
C164        C  0.70080645  0.54046880  0.60780976     0.97500
C165        C  0.67166846  0.60912544  0.65598552     1.04900
O166        O  0.66001782  0.63201875  0.60283585    -1.12200
O167        O  0.60936459  0.68345059  0.60533153    -0.74700
O168        O  0.60277358  0.61114035  0.61615926    -0.78200
O169        O  0.71075529  0.57878681  0.60163069    -0.78900
C170        C  0.59431235  0.65221982  0.61367690     0.96400
O171        O  0.63304721  0.55583063  0.58211434    -0.76800
O172        O  0.66049878  0.73234696  0.59452282    -0.82000
C173        C  0.69527426  0.67447866  0.56020804     0.99000
C174        C  0.67843695  0.74136269  0.60965275     1.04900
O175        O  0.70869023  0.66867963  0.57857961    -0.77600
C176        C  0.62226381  0.57781486  0.56582853     1.03200
Fe177      Fe  0.84465283  0.91029628  0.11833993     1.65800
Fe178      Fe  0.84697139  0.82034076  0.08328101     1.73200
Fe179      Fe  0.78826377  0.84245966  0.11248557     1.54400
O180        O  0.79571435  0.85395153  0.14676845    -0.81400
O181        O  0.81709953  0.82928583  0.05959333    -0.79700
O182        O  0.83804004  0.88421811  0.15004259    -0.83900
O183        O  0.80920785  0.94974760  0.12087337    -0.78700
O184        O  0.79668580  0.77432718  0.11811037    -0.80500
O185        O  0.86721482  0.87670465  0.06935233    -0.83300
C186        C  0.78421413  0.94631844  0.11472484     0.97500
C187        C  0.81643269  0.86655562  0.15863160     1.04900
O188        O  0.82645634  0.85728531  0.10488530    -1.12200
O189        O  0.87871554  0.80889129  0.10559552    -0.74700
O190        O  0.88363526  0.87986760  0.11850938    -0.78200
O191        O  0.77437616  0.90863320  0.10777878    -0.78900
C192        C  0.89298087  0.83971358  0.11516028     0.96400
O193        O  0.85095123  0.93834729  0.08673959    -0.76800
O194        O  0.82895288  0.75851846  0.09278899    -0.82000
C195        C  0.79102317  0.82652753  0.06037219     0.99000
C196        C  0.81041313  0.74591455  0.10659503     1.04900
O197        O  0.77766660  0.82864113  0.07887647    -0.77600
C198        C  0.86205963  0.91944297  0.06975251     1.03200
Fe199      Fe  0.84954259  0.08526758  0.87058974     1.65800
Fe200      Fe  0.85244548  0.18175696  0.90100773     1.73200
Fe201      Fe  0.79426894  0.15620695  0.87126029     1.54400
O202        O  0.80308970  0.13761753  0.83806621    -0.81400
O203        O  0.82149025  0.18039423  0.92416066    -0.79700
O204        O  0.84527319  0.10592656  0.83756204    -0.83900
O205        O  0.81360040  0.04741477  0.86785489    -0.78700
O206        O  0.80375055  0.22341357  0.86305553    -0.80500
O207        O  0.87034885  0.12694869  0.91844026    -0.83300
C208        C  0.78846698  0.05238616  0.87300686     0.97500
C209        C  0.82413205  0.12224623  0.82756238     1.04900
O210        O  0.83184898  0.14151078  0.88080486    -1.12200
O211        O  0.88529922  0.18643999  0.87911670    -0.74700
O212        O  0.88917824  0.11255126  0.87125659    -0.78200
O213        O  0.77890076  0.09131116  0.87832441    -0.78900
C214        C  0.89943031  0.15257812  0.87249361     0.96400
O215        O  0.85345048  0.06300144  0.90355591    -0.76800
O216        O  0.83635679  0.24221951  0.88778824    -0.82000
C217        C  0.79546370  0.18285094  0.92228389     0.99000
C218        C  0.81776977  0.25329500  0.87362139     1.04900
O219        O  0.78276016  0.17651340  0.90364146    -0.77600
C220        C  0.86431526  0.08452823  0.91999242     1.03200
Fe221      Fe  0.14841878  0.91458813  0.12067334     1.65800
Fe222      Fe  0.14560633  0.81709732  0.08997526     1.73200
Fe223      Fe  0.20534734  0.84671556  0.11730397     1.54400
O224        O  0.21871301  0.91248797  0.11066834    -0.81400
O225        O  0.16168255  0.75741236  0.10461614    -0.79700
O226        O  0.18322565  0.95575136  0.12019294    -0.83900
O227        O  0.15653550  0.89503575  0.15339800    -0.78700
O228        O  0.21607629  0.82915258  0.08434103    -0.80500
O229        O  0.11213277  0.81308320  0.11133353    -0.83300
C230        C  0.17761463  0.87678964  0.16260987     0.97500
C231        C  0.20828204  0.95132905  0.11467641     1.04900
O232        O  0.16659440  0.85911463  0.10938789    -1.12200
O233        O  0.12810853  0.87118802  0.07146789    -0.74700
O234        O  0.13995559  0.93646398  0.08832293    -0.78200
O235        O  0.19805260  0.86168782  0.15127337    -0.78900
C236        C  0.13061243  0.91476324  0.07133860     0.96400
O237        O  0.10971449  0.88476751  0.12303545    -0.76800
O238        O  0.17618383  0.81599308  0.06663686    -0.82000
C239        C  0.18248060  0.74805014  0.11701358     0.99000
C240        C  0.20227731  0.81795325  0.06684848     1.04900
O241        O  0.19839708  0.77887666  0.12460406    -0.77600
C242        C  0.09873702  0.84578388  0.12003447     1.03200
Fe243      Fe  0.15276927  0.09083089  0.87432193     1.65800
Fe244      Fe  0.15141396  0.18439195  0.90679409     1.73200
Fe245      Fe  0.20894933  0.15982430  0.87661658     1.54400
O246        O  0.22336891  0.09462513  0.88397010    -0.81400
O247        O  0.16964346  0.24512303  0.89516182    -0.79700
O248        O  0.18831983  0.05185549  0.87254583    -0.83900
O249        O  0.15835681  0.11241263  0.84170355    -0.78700
O250        O  0.22042422  0.18130739  0.90889786    -0.80500
O251        O  0.11875678  0.19360420  0.88492429    -0.83300
C252        C  0.17992834  0.12800349  0.83220007     0.97500
C253        C  0.21345827  0.05609874  0.87813259     1.04900
O254        O  0.17115310  0.14541328  0.88568255    -1.12200
O255        O  0.13155366  0.12965685  0.92302467    -0.74700
O256        O  0.14716529  0.06657936  0.90668398    -0.78200
O257        O  0.20100777  0.14166618  0.84325224    -0.78900
C258        C  0.13659458  0.08678810  0.92350082     0.96400
O259        O  0.11401406  0.12126885  0.87390458    -0.76800
O260        O  0.18223595  0.17705130  0.92970187    -0.82000
C261        C  0.18738903  0.25643394  0.88034393     0.99000
C262        C  0.20780543  0.18488840  0.92764433     1.04900
O263        O  0.19933468  0.22659304  0.86829677    -0.77600
C264        C  0.10463492  0.16173458  0.87599750     1.03200
Fe265      Fe  0.34656970  0.41307067  0.12244039     1.65800
Fe266      Fe  0.35020238  0.32024228  0.08918541     1.73200
Fe267      Fe  0.29063591  0.34495551  0.11709760     1.54400
O268        O  0.29720291  0.35968206  0.15102961    -0.81400
O269        O  0.32034035  0.32373795  0.06487219    -0.79700
O270        O  0.34011677  0.38770274  0.15440320    -0.83900
O271        O  0.31103371  0.45207427  0.12451767    -0.78700
O272        O  0.29914331  0.27724350  0.12414899    -0.80500
O273        O  0.36893222  0.37633806  0.07378468    -0.83300
C274        C  0.28650179  0.44891489  0.11727492     0.97500
C275        C  0.31816645  0.37097215  0.16286733     1.04900
O276        O  0.32894039  0.35897600  0.10960236    -1.12200
O277        O  0.38243083  0.31285293  0.11173760    -0.74700
O278        O  0.38575544  0.38498711  0.12273339    -0.78200
O279        O  0.27672923  0.41096050  0.11054237    -0.78900
C280        C  0.39626850  0.34556877  0.12010033     0.96400
O281        O  0.35285563  0.43911571  0.09051081    -0.76800
O282        O  0.33318280  0.25917793  0.10073098    -0.82000
C283        C  0.29430860  0.32079119  0.06608207     0.99000
C284        C  0.31365126  0.24778614  0.11386623     1.04900
O285        O  0.28084741  0.32719925  0.08420625    -0.77600
C286        C  0.36391627  0.41917836  0.07375215     1.03200
Fe287      Fe  0.35167774  0.59381501  0.87666329     1.65800
Fe288      Fe  0.35186988  0.68749408  0.91001039     1.73200
Fe289      Fe  0.29557096  0.66337998  0.87766214     1.54400
O290        O  0.30454123  0.64607132  0.84441372    -0.81400
O291        O  0.31972410  0.68290352  0.93201327    -0.79700
O292        O  0.34650430  0.61443371  0.84369509    -0.83900
O293        O  0.31616885  0.55412930  0.87477524    -0.78700
O294        O  0.30569760  0.73060847  0.87018226    -0.80500
O295        O  0.36978973  0.63269314  0.92692719    -0.83300
C296        C  0.29082510  0.55882830  0.87963051     0.97500
C297        C  0.32536074  0.63069379  0.83376014     1.04900
O298        O  0.33296824  0.64854053  0.88794709    -1.12200
O299        O  0.38601374  0.69560501  0.88989031    -0.74700
O300        O  0.39048552  0.62468172  0.87682496    -0.78200
O301        O  0.28070858  0.59784870  0.88419956    -0.78900
C302        C  0.40031898  0.66433246  0.88086552     0.96400
O303        O  0.35721028  0.56925743  0.90896176    -0.76800
O304        O  0.33559059  0.74808771  0.89741312    -0.82000
C305        C  0.29408016  0.68850839  0.92887711     0.99000
C306        C  0.31830961  0.75977538  0.88231176     1.04900
O307        O  0.28262879  0.68374947  0.90963373    -0.77600
C308        C  0.36646173  0.58950196  0.92634909     1.03200
Fe309      Fe  0.65223120  0.40959932  0.11458315     1.65800
Fe310      Fe  0.64811465  0.31218639  0.08356657     1.73200
Fe311      Fe  0.70757992  0.33782947  0.11225643     1.54400
O312        O  0.72271400  0.40205355  0.10388067    -0.81400
O313        O  0.66204081  0.25268970  0.09906575    -0.79700
O314        O  0.68796492  0.44791918  0.11264223    -0.83900
O315        O  0.66060883  0.39252202  0.14755736    -0.78700
O316        O  0.71847837  0.31527681  0.08012642    -0.80500
O317        O  0.61420590  0.31097671  0.10413938    -0.83300
C318        C  0.68184774  0.37543786  0.15700046     0.97500
C319        C  0.71292733  0.44177302  0.10711698     1.04900
O320        O  0.66937119  0.35293012  0.10352143    -1.12200
O321        O  0.63250900  0.36627623  0.06440499    -0.74700
O322        O  0.64338287  0.43095706  0.08224689    -0.78200
O323        O  0.70133659  0.35749001  0.14568452    -0.78900
C324        C  0.63487271  0.40972809  0.06488082     0.96400
O325        O  0.61320953  0.38123600  0.11834460    -0.76800
O326        O  0.67921710  0.30777058  0.06075830    -0.82000
C327        C  0.68110019  0.24208643  0.11292142     0.99000
C328        C  0.70521379  0.30542873  0.06220592     1.04900
O329        O  0.69743363  0.27156780  0.12134842    -0.77600
C330        C  0.60195918  0.34267473  0.11461589     1.03200
Fe331      Fe  0.65607554  0.58859575  0.86864235     1.65800
Fe332      Fe  0.65560599  0.68060625  0.90245023     1.73200
Fe333      Fe  0.71136427  0.65905039  0.86938226     1.54400
O334        O  0.72708908  0.59387889  0.87654635    -0.81400
O335        O  0.67095310  0.74219054  0.88962684    -0.79700
O336        O  0.69208585  0.55148452  0.86452548    -0.83900
O337        O  0.65883125  0.61298086  0.83614816    -0.78700
O338        O  0.72445217  0.68238199  0.90096002    -0.80500
O339        O  0.62095232  0.68807099  0.88250215    -0.83300
C340        C  0.68032423  0.62678824  0.82591576     0.97500
C341        C  0.71708663  0.55530596  0.87062942     1.04900
O342        O  0.67446189  0.64311330  0.88010109    -1.12200
O343        O  0.63860777  0.62400976  0.91910070    -0.74700
O344        O  0.65308551  0.56199143  0.90077439    -0.78200
O345        O  0.70218438  0.63939172  0.83626395    -0.78900
C346        C  0.64330555  0.58106921  0.91824727     0.96400
O347        O  0.61671340  0.61610879  0.87101376    -0.76800
O348        O  0.68835724  0.67619772  0.92413959    -0.82000
C349        C  0.68669849  0.75442269  0.87352297     0.99000
C350        C  0.71345873  0.68541183  0.92039757     1.04900
O351        O  0.69947911  0.72543694  0.86142491    -0.77600
C352        C  0.60650610  0.65545511  0.87472292     1.03200
C353        C  0.64286832  0.50163000  0.02024999    -0.01700
C354        C  0.62662734  0.48461582  0.00239585     0.06900
C355        C  0.61089953  0.44480356  0.00569955    -0.07700
C356        C  0.61210374  0.42072493  0.02625062     0.04300
C357        C  0.62934834  0.43668420  0.04394802    -0.14900
C358        C  0.64393886  0.47797080  0.04079331    -0.08200
C359        C  0.62819827  0.50577201  0.97965398     0.05300
C360        C  0.65025957  0.49355832  0.96572829    -0.09400
C361        C  0.65508324  0.51664153  0.94538008     0.00300
C362        C  0.63745380  0.55279292  0.93856589     0.00100
C363        C  0.61484396  0.56407687  0.95231173    -0.12900
C364        C  0.61006431  0.54076499  0.97268525     0.00600
C365        C  0.67957485  0.50484153  0.93289982     0.39900
C366        C  0.58692708  0.55402410  0.98645443     0.36500
C367        C  0.65959783  0.54228884  0.01748030     0.36200
C368        C  0.59551746  0.37983473  0.02860068     0.37000
N369        N  0.69941237  0.49534751  0.92318343    -0.43800
N370        N  0.56832050  0.56458610  0.99745191    -0.44200
N371        N  0.58219857  0.34707417  0.03045500    -0.41600
N372        N  0.67306033  0.57476261  0.01517878    -0.43000
H373        H  0.65736961  0.49079261  0.05403285     0.13100
H374        H  0.59830904  0.43180539  0.99196256     0.09600
H375        H  0.66444273  0.46704045  0.97127012     0.10700
H376        H  0.60110377  0.59161724  0.94728627     0.16500
C377        C  0.47075291  0.64957395  0.85462808    -0.01700
C378        C  0.48770632  0.67523614  0.86929764     0.06900
C379        C  0.47540305  0.70242766  0.88591549    -0.07700
C380        C  0.44675250  0.70173275  0.88917429     0.04300
C381        C  0.42987242  0.67303235  0.87562853    -0.14900
C382        C  0.44218674  0.64831152  0.85800598    -0.08200
C383        C  0.51821838  0.66998522  0.86933259     0.05300
C384        C  0.53522544  0.70766930  0.86430642    -0.09400
C385        C  0.56411604  0.70384004  0.86535684     0.00300
C386        C  0.57634323  0.66157455  0.87149198     0.00100
C387        C  0.55915900  0.62394435  0.87625078    -0.12900
C388        C  0.53046574  0.62794127  0.87553064     0.00600
C389        C  0.58065169  0.74339824  0.85966696     0.39900
C390        C  0.51401648  0.58899990  0.88240588     0.36500
C391        C  0.48233825  0.62339920  0.83632928     0.36200
C392        C  0.43571086  0.72831254  0.90756976     0.37000
N393        N  0.59392247  0.77508213  0.85507406    -0.43800
N394        N  0.50083228  0.55787746  0.88798144    -0.44200
N395        N  0.42698141  0.74974921  0.92231054    -0.41600
N396        N  0.49164127  0.60246963  0.82165409    -0.43000
H397        H  0.42952828  0.62693458  0.84716455     0.13100
H398        H  0.48837789  0.72241020  0.89715568     0.09600
H399        H  0.52589124  0.74012872  0.85966055     0.10700
H400        H  0.56815780  0.59156082  0.88147546     0.16500
C401        C  0.47136862  0.37677642  0.12787841    -0.01700
C402        C  0.48438863  0.33362062  0.12921434     0.06900
C403        C  0.46793244  0.29389758  0.12989825    -0.07700
C404        C  0.43910684  0.29646161  0.12774526     0.04300
C405        C  0.42614303  0.33970657  0.12543359    -0.14900
C406        C  0.44266295  0.37942005  0.12630816    -0.08200
C407        C  0.51500365  0.32960423  0.12772532     0.05300
C408        C  0.53180635  0.35363334  0.14306449    -0.09400
C409        C  0.56037305  0.35724532  0.13974280     0.00300
C410        C  0.57273771  0.33526791  0.12111473     0.00100
C411        C  0.55614471  0.30841595  0.10681697    -0.12900
C412        C  0.52757831  0.30590047  0.10975386     0.00600
C413        C  0.57634265  0.38410492  0.15552736     0.39900
C414        C  0.51152205  0.28154577  0.09305303     0.36500
C415        C  0.48698889  0.41893077  0.12646080     0.36200
C416        C  0.42361240  0.25415221  0.12757696     0.37000
N417        N  0.58906378  0.40577475  0.16817165    -0.43800
N418        N  0.49868573  0.26203280  0.07965745    -0.44200
N419        N  0.41128230  0.22013767  0.12735634    -0.41600
N420        N  0.49946677  0.45271987  0.12532636    -0.43000
H421        H  0.43330957  0.41298709  0.12449581     0.13100
H422        H  0.47775646  0.26061927  0.13128063     0.09600
H423        H  0.52238100  0.37126530  0.15715766     0.10700
H424        H  0.56527032  0.29151185  0.09237401     0.16500
C425        C  0.35620700  0.50919683  0.02813468    -0.01700
C426        C  0.37385828  0.49266504  0.01119824     0.06900
C427        C  0.39005163  0.45389709  0.01543176    -0.07700
C428        C  0.38827598  0.43052491  0.03606120     0.04300
C429        C  0.36985551  0.44608390  0.05295223    -0.14900
C430        C  0.35446574  0.48613884  0.04882064    -0.08200
C431        C  0.37466956  0.51441092  0.98861944     0.05300
C432        C  0.38924121  0.55546375  0.98578128    -0.09400
C433        C  0.38829309  0.57932532  0.96525015     0.00300
C434        C  0.37210658  0.56223541  0.94712742     0.00100
C435        C  0.35870047  0.51970700  0.94980911    -0.12900
C436        C  0.35986231  0.49587180  0.97031783     0.00600
C437        C  0.40420716  0.62106696  0.96340379     0.39900
C438        C  0.34469616  0.45346747  0.97257298     0.36500
C439        C  0.33869504  0.54846240  0.02420449     0.36200
C440        C  0.40559341  0.39075380  0.03923648     0.37000
N441        N  0.41702731  0.65445477  0.96196422    -0.43800
N442        N  0.33257596  0.41947368  0.97446446    -0.44200
N443        N  0.41946918  0.35885512  0.04168973    -0.41600
N444        N  0.32460515  0.57980925  0.02096534    -0.43000
H445        H  0.34004465  0.49843078  0.06137316     0.13100
H446        H  0.40376862  0.44143775  0.00239334     0.09600
H447        H  0.40098536  0.56929769  0.99982288     0.10700
H448        H  0.34623105  0.50586391  0.93620021     0.16500
C449        C  0.29081843  0.87012378  0.85698071    -0.01700
C450        C  0.28583788  0.89660497  0.87645941     0.06900
C451        C  0.29480341  0.88005582  0.89745652    -0.07700
C452        C  0.30711514  0.83682480  0.89949688     0.04300
C453        C  0.31064835  0.80894725  0.88014703    -0.14900
C454        C  0.30294435  0.82661363  0.85896487    -0.08200
C455        C  0.26832424  0.93856581  0.87581417     0.05300
C456        C  0.24089101  0.93430284  0.86862650    -0.09400
C457        C  0.22277389  0.97161893  0.86909584     0.00300
C458        C  0.23186113  0.01484065  0.87738482     0.00100
C459        C  0.25958553  0.01893677  0.88442199    -0.12900
C460        C  0.27773069  0.98146861  0.88361785     0.00600
C461        C  0.19518506  0.96390616  0.86060420     0.39900
C462        C  0.30610512  0.98810957  0.89033373     0.36500
C463        C  0.28329182  0.88670604  0.83483088     0.36200
C464        C  0.31353979  0.82057721  0.92196995     0.37000
N465        N  0.17316705  0.95748366  0.85367033    -0.43800
N466        N  0.32889257  0.99342944  0.89560707    -0.44200
N467        N  0.31858553  0.80767379  0.94000405    -0.41600
N468        N  0.27732688  0.90012641  0.81708066    -0.43000
H469        H  0.30570150  0.80586171  0.84399813     0.13100
H470        H  0.29076310  0.89995617  0.91252389     0.09600
H471        H  0.23347345  0.90126528  0.86278747     0.10700
H472        H  0.26728192  0.05157878  0.89049753     0.16500
C473        C  0.27029876  0.43270154  0.87854294    -0.01700
C474        C  0.24124035  0.43438310  0.87739991     0.06900
C475        C  0.22821678  0.47730854  0.87804446    -0.07700
C476        C  0.24361248  0.51822200  0.87913702     0.04300
C477        C  0.27289702  0.51675094  0.87966005    -0.14900
C478        C  0.28571657  0.47338070  0.87949938    -0.08200
C479        C  0.22421639  0.39160037  0.87641389     0.05300
C480        C  0.20747740  0.38010069  0.89483770    -0.09400
C481        C  0.19377792  0.33763644  0.89594344     0.00300
C482        C  0.19643269  0.30549083  0.87810433     0.00100
C483        C  0.21182888  0.31866226  0.85900769    -0.12900
C484        C  0.22560246  0.36101887  0.85804019     0.00600
C485        C  0.17883550  0.32721135  0.91636551     0.39900
C486        C  0.24152374  0.37195033  0.83817977     0.36500
C487        C  0.28480725  0.38950348  0.87937573     0.36200
C488        C  0.22860814  0.56092619  0.87924213     0.37000
N489        N  0.16695794  0.31903243  0.93280542    -0.43800
N490        N  0.25437333  0.38060940  0.82230037    -0.44200
N491        N  0.21647204  0.59506658  0.87936334    -0.41600
N492        N  0.29641970  0.35488502  0.88004008    -0.43000
H493        H  0.30801818  0.47099157  0.88026618     0.13100
H494        H  0.20587368  0.47885032  0.87747908     0.09600
H495        H  0.20616265  0.40358485  0.90895558     0.10700
H496        H  0.21397967  0.29510095  0.84502501     0.16500
C497        C  0.21728510  0.24835850  0.98202978    -0.01700
C498        C  0.24587697  0.24554849  0.98574072     0.06900
C499        C  0.26251132  0.22181490  0.97031620    -0.07700
C500        C  0.25089354  0.20107156  0.95118790     0.04300
C501        C  0.22206423  0.20310509  0.94777499    -0.14900
C502        C  0.20568968  0.22687967  0.96341616    -0.08200
C503        C  0.25829932  0.26625992  0.00606721     0.05300
C504        C  0.24920215  0.25107170  0.02722856    -0.09400
C505        C  0.25947182  0.27045283  0.04700806     0.00300
C506        C  0.27959698  0.30544096  0.04574243     0.00100
C507        C  0.28871014  0.32068871  0.02451250    -0.12900
C508        C  0.27806694  0.30158465  0.00469450     0.00600
C509        C  0.25025093  0.25162235  0.06828221     0.39900
C510        C  0.28743222  0.31890566  0.98318638     0.36500
C511        C  0.19944312  0.27450029  0.99663853     0.36200
C512        C  0.26891229  0.17783902  0.93562320     0.37000
N513        N  0.24284552  0.23643518  0.08528490    -0.43800
N514        N  0.29480121  0.33243502  0.96584406    -0.44200
N515        N  0.28342418  0.15944099  0.92311202    -0.41600
N516        N  0.18512755  0.29546503  0.00828698    -0.43000
H517        H  0.18362611  0.23019637  0.96077268     0.13100
H518        H  0.28455943  0.21951004  0.97326355     0.09600
H519        H  0.23414161  0.22358230  0.02825253     0.10700
H520        H  0.30441494  0.34714389  0.02344084     0.16500
C521        C  0.21335552  0.75509753  0.01218241    -0.01700
C522        C  0.24091694  0.76546138  0.00697116     0.06900
C523        C  0.25594602  0.79520367  0.02104208    -0.07700
C524        C  0.24390770  0.81400413  0.04045012     0.04300
C525        C  0.21632989  0.80285834  0.04592338    -0.14900
C526        C  0.20139508  0.77369931  0.03138546    -0.08200
C527        C  0.25424732  0.74465297  0.98705451     0.05300
C528        C  0.24427813  0.75552927  0.96545259    -0.09400
C529        C  0.25577601  0.73565822  0.94619907     0.00300
C530        C  0.27777485  0.70410183  0.94847915     0.00100
C531        C  0.28721997  0.69258004  0.97024646    -0.12900
C532        C  0.27571540  0.71255781  0.98942454     0.00600
C533        C  0.24561697  0.75051241  0.92443487     0.39900
C534        C  0.28618481  0.69944459  0.01135339     0.36500
C535        C  0.19716925  0.72403051  0.99852887     0.36200
C536        C  0.26007488  0.84511532  0.05403791     0.37000
N537        N  0.23742066  0.76261358  0.90704716    -0.43800
N538        N  0.29461374  0.68902601  0.02892482    -0.44200
N539        N  0.27303724  0.87017706  0.06487122    -0.41600
N540        N  0.18418985  0.69920039  0.98758726    -0.43000
H541        H  0.18031207  0.76407005  0.03529830     0.13100
H542        H  0.27713682  0.80359101  0.01685117     0.09600
H543        H  0.22765777  0.78015701  0.96365710     0.10700
H544        H  0.30410653  0.66854342  0.97228717     0.16500
C545        C  0.12876757  0.01398320  0.02951651    -0.01700
C546        C  0.11975396  0.99276130  0.00940793     0.06900
C547        C  0.11151571  0.94661758  0.01028695    -0.07700
C548        C  0.11330022  0.92097403  0.03034353     0.04300
C549        C  0.12379261  0.94147518  0.05032786    -0.14900
C550        C  0.13043317  0.98853544  0.04958491    -0.08200
C551        C  0.12187455  0.01599406  0.98692676     0.05300
C552        C  0.13930809  0.99670390  0.97067802    -0.09400
C553        C  0.14360848  0.01795551  0.94972661     0.00300
C554        C  0.13043354  0.06016227  0.94457364     0.00100
C555        C  0.11223876  0.07867230  0.96066862    -0.12900
C556        C  0.10763697  0.05678852  0.98150549     0.00600
C557        C  0.16252560  0.99608739  0.93436772     0.39900
C558        C  0.08783068  0.07638877  0.99683177     0.36500
C559        C  0.13819819  0.06097489  0.02980306     0.36200
C560        C  0.10475264  0.87356739  0.02951472     0.37000
N561        N  0.17763204  0.97831467  0.92210904    -0.43800
N562        N  0.07195046  0.09213472  0.00910457    -0.44200
N563        N  0.09784629  0.83559661  0.02871689    -0.41600
N564        N  0.14566114  0.09868051  0.03019524    -0.43000
H565        H  0.13831192  0.00544981  0.06462119     0.13100
H566        H  0.10437380  0.93004614  0.99491097     0.09600
H567        H  0.15018297  0.96519766  0.97461456     0.10700
H568        H  0.10153860  0.11045843  0.95701457     0.16500
C569        C  0.19752872  0.62372086  0.10362627    -0.01700
C570        C  0.21662548  0.61170138  0.12069782     0.06900
C571        C  0.22140292  0.64276455  0.13833502    -0.07700
C572        C  0.20874055  0.68600745  0.13859995     0.04300
C573        C  0.19061991  0.69916889  0.12087502    -0.14900
C574        C  0.18450735  0.66674625  0.10401028    -0.08200
C575        C  0.23387905  0.56926618  0.11946082     0.05300
C576        C  0.26260265  0.57411159  0.11779542    -0.09400
C577        C  0.27999642  0.53579926  0.11681389     0.00300
C578        C  0.26871771  0.49085627  0.11727927     0.00100
C579        C  0.23985291  0.48611344  0.11881878    -0.12900
C580        C  0.22253389  0.52466866  0.12020872     0.00600
C581        C  0.30931341  0.54407771  0.11507593     0.39900
C582        C  0.19333341  0.51762750  0.12341607     0.36500
C583        C  0.19261944  0.59410891  0.08455045     0.36200
C584        C  0.21552496  0.71657526  0.15695426     0.37000
N585        N  0.33279983  0.55079563  0.11381479    -0.43800
N586        N  0.16991574  0.51209843  0.12603692    -0.44200
N587        N  0.22112230  0.74106846  0.17161287    -0.41600
N588        N  0.18867597  0.57037586  0.06925640    -0.43000
H589        H  0.17109473  0.67622737  0.09007566     0.13100
H590        H  0.23590956  0.63373623  0.15160525     0.09600
H591        H  0.27152370  0.60824597  0.11723314     0.10700
H592        H  0.23078444  0.45213648  0.11964428     0.16500
C593        C  0.27614643  0.14271773  0.13525180    -0.01700
C594        C  0.27875258  0.11226409  0.11699899     0.06900
C595        C  0.29598640  0.12398934  0.09895812    -0.07700
C596        C  0.30924015  0.16677887  0.09819311     0.04300
C597        C  0.30561538  0.19858836  0.11605116    -0.14900
C598        C  0.28968581  0.18515558  0.13476286    -0.08200
C599        C  0.26142775  0.07036763  0.11542889     0.05300
C600        C  0.23341395  0.07527484  0.11004949    -0.09400
C601        C  0.21583218  0.03715080  0.10915286     0.00300
C602        C  0.22630674  0.99272745  0.11370197     0.00100
C603        C  0.25465990  0.98794841  0.11846685    -0.12900
C604        C  0.27214879  0.02627433  0.11944350     0.00600
C605        C  0.18732173  0.04493150  0.10316746     0.39900
C606        C  0.30078552  0.01979516  0.12535880     0.36500
C607        C  0.25869258  0.13186274  0.15422773     0.36200
C608        C  0.32421392  0.17826631  0.07790888     0.37000
N609        N  0.16451543  0.05169552  0.09840413    -0.43800
N610        N  0.32372698  0.01462087  0.13017726    -0.44200
N611        N  0.33603494  0.18735760  0.06155407    -0.41600
N612        N  0.24460509  0.12314431  0.16937463    -0.43000
H613        H  0.28663236  0.20882068  0.14860662     0.13100
H614        H  0.29783715  0.10063517  0.08483073     0.09600
H615        H  0.22523056  0.10922229  0.10667934     0.10700
H616        H  0.26308793  0.95431183  0.12211423     0.16500
C617        C  0.97561031  0.12635159  0.87142670    -0.01700
C618        C  0.98722795  0.16819956  0.86412956     0.06900
C619        C  0.96967038  0.20441971  0.85796727    -0.07700
C620        C  0.94088468  0.19983626  0.85966861     0.04300
C621        C  0.92931481  0.15843344  0.86780165    -0.14900
C622        C  0.94700108  0.12179067  0.87310514    -0.08200
C623        C  0.01766962  0.17458374  0.86388444     0.05300
C624        C  0.03362675  0.14702704  0.84964664    -0.09400
C625        C  0.06232724  0.14483973  0.85215032     0.00300
C626        C  0.07557208  0.17056610  0.86927401     0.00100
C627        C  0.05979679  0.20137312  0.88207126    -0.12900
C628        C  0.03105235  0.20346960  0.87954433     0.00600
C629        C  0.07758385  0.11541134  0.83712836     0.39900
C630        C  0.01557723  0.23309497  0.89429715     0.36500
C631        C  0.99267348  0.08817355  0.87831676     0.36200
C632        C  0.92374593  0.23756095  0.85242119     0.37000
N633        N  0.08982327  0.09191706  0.82506646    -0.43800
N634        N  0.00315077  0.25691549  0.90606851    -0.44200
N635        N  0.90998563  0.26767612  0.84646649    -0.41600
N636        N  0.00635687  0.05760704  0.88380891    -0.43000
H637        H  0.93852534  0.08984438  0.87946323     0.13100
H638        H  0.97850261  0.23639912  0.85200878     0.09600
H639        H  0.02345131  0.12553561  0.83722899     0.10700
H640        H  0.06965695  0.22169277  0.89511395     0.16500
C641        C  0.71828478  0.23300078  0.01096276    -0.01700
C642        C  0.74416158  0.24877188  0.00362259     0.06900
C643        C  0.75795993  0.28302329  0.01593645    -0.07700
C644        C  0.74602299  0.30207025  0.03530582     0.04300
C645        C  0.71972907  0.28700801  0.04231295    -0.14900
C646        C  0.70629474  0.25223658  0.03004116    -0.08200
C647        C  0.75681657  0.23004392  0.98294637     0.05300
C648        C  0.74422021  0.23882288  0.96203406    -0.09400
C649        C  0.75561157  0.22211114  0.94201463     0.00300
C650        C  0.78004005  0.19567890  0.94284256     0.00100
C651        C  0.79207886  0.18592479  0.96398237    -0.12900
C652        C  0.78077876  0.20300552  0.98389782     0.00600
C653        C  0.74267394  0.23501340  0.92094816     0.39900
C654        C  0.79409489  0.19238555  0.00511059     0.36500
C655        C  0.70395644  0.19631571  0.99948770     0.36200
C656        C  0.76064331  0.33788773  0.04713177     0.37000
N657        N  0.73231548  0.24549721  0.90408403    -0.43800
N658        N  0.80477427  0.18404126  0.02212437    -0.44200
N659        N  0.77236044  0.36661173  0.05661879    -0.41600
N660        N  0.69255263  0.16683832  0.99031497    -0.43000
H661        H  0.68638222  0.23948391  0.03556231     0.13100
H662        H  0.77793185  0.29514211  0.01025137     0.09600
H663        H  0.72570951  0.25965133  0.96135706     0.10700
H664        H  0.81077630  0.16559955  0.96495393     0.16500
C665        C  0.78083982  0.47811431  0.86818713    -0.01700
C666        C  0.76904026  0.43391155  0.86717155     0.06900
C667        C  0.74029837  0.42963317  0.86799147    -0.07700
C668        C  0.72322702  0.46819867  0.86967902     0.04300
C669        C  0.73481576  0.51306437  0.87021374    -0.14900
C670        C  0.76380077  0.51713729  0.86957572    -0.08200
C671        C  0.78594998  0.39111606  0.86692740     0.05300
C672        C  0.79984738  0.37794926  0.88667408    -0.09400
C673        C  0.81192804  0.33440151  0.88871609     0.00300
C674        C  0.81038705  0.30274371  0.87058348     0.00100
C675        C  0.79769640  0.31711718  0.85036209    -0.12900
C676        C  0.78561074  0.36075202  0.84842016     0.00600
C677        C  0.82351158  0.32206181  0.91038290     0.39900
C678        C  0.77252745  0.37339209  0.82739412     0.36500
C679        C  0.81037663  0.48409659  0.86749356     0.36200
C680        C  0.69394137  0.45994058  0.87177606     0.37000
N681        N  0.83266756  0.31223563  0.92779695    -0.43800
N682        N  0.76216437  0.38355087  0.81048718    -0.44200
N683        N  0.67052348  0.45315848  0.87363642    -0.41600
N684        N  0.83408656  0.48862407  0.86694176    -0.43000
H685        H  0.77322500  0.55085401  0.86992305     0.13100
H686        H  0.73113932  0.39566142  0.86781673     0.09600
H687        H  0.79993517  0.40091971  0.90103735     0.10700
H688        H  0.79635833  0.29361090  0.83625484     0.16500
C689        C  0.72262778  0.98054537  0.86970601    -0.01700
C690        C  0.73307820  0.93554063  0.86855959     0.06900
C691        C  0.76165385  0.92888949  0.86912222    -0.07700
C692        C  0.77993457  0.96591262  0.87100200     0.04300
C693        C  0.76971135  0.01149022  0.87211343    -0.14900
C694        C  0.74087426  0.01796282  0.87143218    -0.08200
C695        C  0.71511090  0.89405036  0.86848290     0.05300
C696        C  0.71339851  0.86710893  0.84892605    -0.09400
C697        C  0.70191280  0.82282777  0.84960321     0.00300
C698        C  0.69244998  0.80436408  0.87029677     0.00100
C699        C  0.69217906  0.83303716  0.88940015    -0.12900
C700        C  0.70338366  0.87739528  0.88862765     0.00600
C701        C  0.70028076  0.79697536  0.82890197     0.39900
C702        C  0.70445178  0.90407073  0.90910548     0.36500
C703        C  0.69332565  0.98909859  0.86895796     0.36200
C704        C  0.80899233  0.95534592  0.87242267     0.37000
N705        N  0.69874433  0.77627765  0.81231014    -0.43800
N706        N  0.70533913  0.92577793  0.92540754    -0.44200
N707        N  0.83223976  0.94662452  0.87357784    -0.41600
N708        N  0.66983793  0.99606481  0.86834756    -0.43000
H709        H  0.73247828  0.05236852  0.87203622     0.13100
H710        H  0.76972935  0.89422683  0.86860546     0.09600
H711        H  0.72206314  0.88002380  0.83329820     0.10700
H712        H  0.68491608  0.81978230  0.90543317     0.16500
C713        C  0.96673080  0.80223768  0.10724578    -0.01700
C714        C  0.98012083  0.82136823  0.12627636     0.06900
C715        C  0.96401055  0.84306829  0.14278542    -0.07700
C716        C  0.93543154  0.84809147  0.14005041     0.04300
C717        C  0.92220710  0.82980739  0.12080004    -0.14900
C718        C  0.93801953  0.80561275  0.10500290    -0.08200
C719        C  0.01081710  0.82546666  0.12770884     0.05300
C720        C  0.02221224  0.86948834  0.12969473    -0.09400
C721        C  0.05072705  0.87667805  0.12890370     0.00300
C722        C  0.06883916  0.83914194  0.12543327     0.00100
C723        C  0.05743041  0.79464463  0.12488209    -0.12900
C724        C  0.02880384  0.78753924  0.12634842     0.00600
C725        C  0.06029969  0.92342941  0.13088807     0.39900
C726        C  0.01845007  0.74109429  0.12659125     0.36500
C727        C  0.98198763  0.78277195  0.08871938     0.36200
C728        C  0.92038327  0.87313488  0.15698460     0.37000
N729        N  0.06780966  0.96095370  0.13260131    -0.43800
N730        N  0.01015708  0.70386010  0.12674371    -0.44200
N731        N  0.90857335  0.89358094  0.17057315    -0.41600
N732        N  0.99405354  0.76714755  0.07378897    -0.43000
H733        H  0.92817306  0.79217846  0.08993214     0.13100
H734        H  0.97403378  0.85806705  0.15740602     0.09600
H735        H  0.00861543  0.89884138  0.13117135     0.10700
H736        H  0.07084106  0.76522212  0.12290352     0.16500
C737        C  0.85980841  0.99247560  0.96548323    -0.01700
C738        C  0.87187480  0.01428532  0.98425250     0.06900
C739        C  0.88333612  0.05802184  0.98160831    -0.07700
C740        C  0.88224474  0.08090842  0.96077203     0.04300
C741        C  0.86928448  0.05984815  0.94186547    -0.14900
C742        C  0.85869879  0.01509029  0.94457449    -0.08200
C743        C  0.87117903  0.99308547  0.00707824     0.05300
C744        C  0.88971081  0.95784008  0.01246380    -0.09400
C745        C  0.88822670  0.93494569  0.03329355     0.00300
C746        C  0.86774726  0.94724814  0.04917375     0.00100
C747        C  0.85004724  0.98402804  0.04402507    -0.12900
C748        C  0.85151757  0.00668348  0.02317728     0.00600
C749        C  0.90807681  0.89922411  0.03792628     0.39900
C750        C  0.83171562  0.04225455  0.01816643     0.36500
C751        C  0.84726880  0.94772233  0.96760997     0.36200
C752        C  0.89422398  0.12622997  0.95972326     0.37000
N753        N  0.92400506  0.87064848  0.04166754    -0.43800
N754        N  0.81580273  0.07062869  0.01404577    -0.44200
N755        N  0.90380721  0.16257910  0.95901002    -0.41600
N756        N  0.83715606  0.91193696  0.96943098    -0.43000
H757        H  0.84860173  0.99810209  0.93054147     0.13100
H758        H  0.89268196  0.07474987  0.99607251     0.09600
H759        H  0.90507980  0.94773186  0.00019544     0.10700
H760        H  0.83407049  0.99370607  0.05585093     0.16500
C761        C  0.78348824  0.80139281  0.99846579    -0.01700
C762        C  0.75737704  0.78025315  0.99735443     0.06900
C763        C  0.74053685  0.78000538  0.01660978    -0.07700
C764        C  0.74996390  0.79791902  0.03717905     0.04300
C765        C  0.77674152  0.81716834  0.03858411    -0.14900
C766        C  0.79250840  0.82064383  0.01869357    -0.08200
C767        C  0.74805800  0.75529088  0.97688333     0.05300
C768        C  0.74120507  0.70859936  0.97885628    -0.09400
C769        C  0.73125133  0.68402692  0.96027495     0.00300
C770        C  0.72916445  0.70575279  0.93908406     0.00100
C771        C  0.73680874  0.75196696  0.93691641    -0.12900
C772        C  0.74549424  0.77715462  0.95569120     0.00600
C773        C  0.72254821  0.63706410  0.96343093     0.39900
C774        C  0.74961448  0.82596123  0.95312945     0.36500
C775        C  0.80249761  0.80041366  0.97974323     0.36200
C776        C  0.73228696  0.79341984  0.05662214     0.37000
N777        N  0.71541136  0.59951853  0.96596967    -0.43800
N778        N  0.75291429  0.86507257  0.95114805    -0.44200
N779        N  0.71805693  0.78967038  0.07216494    -0.41600
N780        N  0.81780894  0.79969940  0.96480788    -0.43000
H781        H  0.81296514  0.83574919  0.01918024     0.13100
H782        H  0.72032776  0.76407046  0.01576377     0.09600
H783        H  0.74301227  0.69161900  0.99510584     0.10700
H784        H  0.73398014  0.76933907  0.92085010     0.16500
C785        C  0.71859300  0.01822846  0.11511970    -0.01700
C786        C  0.72884253  0.06292472  0.11864549     0.06900
C787        C  0.75733122  0.06915194  0.12148561    -0.07700
C788        C  0.77569187  0.03219880  0.12043834     0.04300
C789        C  0.76568210  0.98728920  0.11608852    -0.14900
C790        C  0.73694087  0.98115495  0.11362653    -0.08200
C791        C  0.71083499  0.10436011  0.11892214     0.05300
C792        C  0.71161518  0.13324349  0.13786320    -0.09400
C793        C  0.69979395  0.17710590  0.13718649     0.00300
C794        C  0.68674760  0.19275950  0.11724871     0.00100
C795        C  0.68381009  0.16220637  0.09907498    -0.12900
C796        C  0.69599415  0.11869581  0.09960725     0.00600
C797        C  0.70191191  0.20568011  0.15697171     0.39900
C798        C  0.69510794  0.09141527  0.07932002     0.36500
C799        C  0.68933422  0.00934875  0.11359681     0.36200
C800        C  0.80460653  0.04210845  0.12384606     0.37000
N801        N  0.70353493  0.22842890  0.17288858    -0.43800
N802        N  0.69427035  0.06964066  0.06303704    -0.44200
N803        N  0.82771578  0.05031544  0.12674456    -0.41600
N804        N  0.66588458  0.00223387  0.11233857    -0.43000
H805        H  0.72859883  0.94711845  0.11084504     0.13100
H806        H  0.76535108  0.10342174  0.12431770     0.09600
H807        H  0.72266454  0.12227465  0.15287893     0.10700
H808        H  0.67405019  0.17374125  0.08356990     0.16500
C809        C  0.73312927  0.56654612  0.10038529    -0.01700
C810        C  0.76177070  0.56562173  0.10431672     0.06900
C811        C  0.77495394  0.52340650  0.10766415    -0.07700
C812        C  0.75982303  0.48227307  0.10786928     0.04300
C813        C  0.73080556  0.48317403  0.10472967    -0.14900
C814        C  0.71798221  0.52569813  0.10060369    -0.08200
C815        C  0.77793727  0.60877303  0.10558591     0.05300
C816        C  0.77853259  0.63309313  0.12595555    -0.09400
C817        C  0.79064066  0.67672504  0.12718663     0.00300
C818        C  0.80256647  0.69665870  0.10771136     0.00100
C819        C  0.80321421  0.67093307  0.08764958    -0.12900
C820        C  0.79082805  0.62754898  0.08642065     0.00600
C821        C  0.79025780  0.70040386  0.14855490     0.39900
C822        C  0.79019838  0.60396666  0.06503828     0.36500
C823        C  0.71878516  0.60918542  0.09637181     0.36200
C824        C  0.77455095  0.44023336  0.11235960     0.37000
N825        N  0.78995436  0.71938613  0.16567667    -0.43800
N826        N  0.78956312  0.58506755  0.04790091    -0.44200
N827        N  0.78647751  0.40664094  0.11596293    -0.41600
N828        N  0.70727878  0.64332804  0.09314248    -0.43000
H829        H  0.69587093  0.52724414  0.09781625     0.13100
H830        H  0.79705587  0.52273287  0.11058777     0.09600
H831        H  0.76871396  0.61849883  0.14075970     0.10700
H832        H  0.81191222  0.68586606  0.07246317     0.16500
C833        C  0.70332264  0.60363642  0.76616316    -0.01700
C834        C  0.68016089  0.61781562  0.75349285     0.06900
C835        C  0.65734843  0.63646267  0.76467900    -0.07700
C836        C  0.65726281  0.64093094  0.78820760     0.04300
C837        C  0.68030718  0.62626250  0.80095506    -0.14900
C838        C  0.70331765  0.60828937  0.78968930    -0.08200
C839        C  0.67926804  0.61401789  0.72853056     0.05300
C840        C  0.66107071  0.58256321  0.71856744    -0.09400
C841        C  0.65867745  0.57938089  0.69503781     0.00300
C842        C  0.67445977  0.60877397  0.68099681     0.00100
C843        C  0.69317610  0.63937976  0.69113840    -0.12900
C844        C  0.69559712  0.64231215  0.71463033     0.00600
C845        C  0.64059685  0.54459164  0.68590864     0.39900
C846        C  0.71436262  0.67562524  0.72410913     0.36500
C847        C  0.72690947  0.58292711  0.75544727     0.36200
C848        C  0.63375845  0.66223452  0.79878422     0.37000
N849        N  0.62620758  0.51650947  0.67866172    -0.43800
N850        N  0.72944319  0.70224764  0.73172567    -0.44200
N851        N  0.61502085  0.67955612  0.80727578    -0.41600
N852        N  0.74579752  0.56629449  0.74685075    -0.43000
H853        H  0.72100406  0.59652985  0.79935427     0.13100
H854        H  0.63965080  0.64792455  0.75494209     0.09600
H855        H  0.64874986  0.56033593  0.72925328     0.10700
H856        H  0.70556347  0.66192502  0.68070406     0.16500
C857        C  0.70366918  0.39230023  0.26902444    -0.01700
C858        C  0.68173017  0.37656467  0.25531524     0.06900
C859        C  0.65793577  0.35891004  0.26570047    -0.07700
C860        C  0.65532751  0.35817723  0.28920818     0.04300
C861        C  0.67732188  0.37355587  0.30290397    -0.14900
C862        C  0.70148476  0.38993022  0.29259240    -0.08200
C863        C  0.68277579  0.37866498  0.23017608     0.05300
C864        C  0.70428075  0.35681545  0.21861559    -0.09400
C865        C  0.70511739  0.35627427  0.19493306     0.00300
C866        C  0.68350390  0.37681316  0.18222127     0.00100
C867        C  0.66239870  0.39956632  0.19401989    -0.12900
C868        C  0.66200852  0.40099607  0.21758813     0.00600
C869        C  0.72854994  0.33461117  0.18444196     0.39900
C870        C  0.64025353  0.42645204  0.22844495     0.36500
C871        C  0.72801271  0.41305342  0.25938203     0.36200
C872        C  0.63001337  0.34086954  0.29882571     0.37000
N873        N  0.74749518  0.31750800  0.17614664    -0.43800
N874        N  0.62282404  0.44679283  0.23716351    -0.44200
N875        N  0.60967187  0.32730466  0.30655769    -0.41600
N876        N  0.74746956  0.42987992  0.25166681    -0.43000
H877        H  0.71835583  0.40235980  0.30299587     0.13100
H878        H  0.64113797  0.34608764  0.25534361     0.09600
H879        H  0.72039471  0.33967235  0.22815893     0.10700
H880        H  0.64596953  0.41666067  0.18485476     0.16500
C881        C  0.59481775  0.45891245  0.47009474    -0.01700
C882        C  0.61608442  0.48432674  0.48050424     0.06900
C883        C  0.64210806  0.48647930  0.47029802    -0.07700
C884        C  0.64721575  0.46392671  0.44997412     0.04300
C885        C  0.62601801  0.43838521  0.43950006    -0.14900
C886        C  0.59998351  0.43579900  0.44978928    -0.08200
C887        C  0.61225187  0.50868126  0.50221702     0.05300
C888        C  0.61050743  0.48327422  0.52228566    -0.09400
C889        C  0.61205516  0.50500809  0.54335661     0.00300
C890        C  0.61531217  0.55328307  0.54451280     0.00100
C891        C  0.61499068  0.57867002  0.52426425    -0.12900
C892        C  0.61373112  0.55683093  0.50330239     0.00600
C893        C  0.61077752  0.47672118  0.56336857     0.39900
C894        C  0.61510952  0.58436205  0.48303819     0.36500
C895        C  0.56749801  0.45707952  0.47965813     0.36200
C896        C  0.67482519  0.46542227  0.44087733     0.37000
N897        N  0.60977472  0.45394703  0.57937393    -0.43800
N898        N  0.61630708  0.60622604  0.46674333    -0.44200
N899        N  0.69697668  0.46639124  0.43366777    -0.41600
N900        N  0.54555109  0.45584705  0.48726391    -0.43000
H901        H  0.58365824  0.41606093  0.44185672     0.13100
H902        H  0.65860584  0.50548877  0.47843568     0.09600
H903        H  0.60923056  0.44616644  0.52147115     0.10700
H904        H  0.61732565  0.61565351  0.52466916     0.16500
C905        C  0.34544375  0.62790523  0.72268246    -0.01700
C906        C  0.32159860  0.62329031  0.73606276     0.06900
C907        C  0.29577159  0.61915230  0.72548432    -0.07700
C908        C  0.29338892  0.61956983  0.70190520     0.04300
C909        C  0.31722246  0.62501648  0.68844814    -0.14900
C910        C  0.34308810  0.62864642  0.69914883    -0.08200
C911        C  0.32291823  0.62461131  0.76109507     0.05300
C912        C  0.31003243  0.66094820  0.77233444    -0.09400
C913        C  0.31065523  0.66395073  0.79590943     0.00300
C914        C  0.32464546  0.63016294  0.80872428     0.00100
C915        C  0.33758318  0.59381565  0.79737677    -0.12900
C916        C  0.33650146  0.59045216  0.77382403     0.00600
C917        C  0.29729828  0.70265220  0.80634481     0.39900
C918        C  0.34853498  0.55076781  0.76319506     0.36500
C919        C  0.37248741  0.63304097  0.73267656     0.36200
C920        C  0.26645242  0.61218958  0.69207071     0.37000
N921        N  0.28647355  0.73366964  0.81460365    -0.43800
N922        N  0.35814471  0.51888558  0.75472546    -0.44200
N923        N  0.24487836  0.60595573  0.68422155    -0.41600
N924        N  0.39419385  0.63685544  0.74065208    -0.43000
H925        H  0.36158861  0.63273231  0.68909136     0.13100
H926        H  0.27742107  0.61516208  0.73573316     0.09600
H927        H  0.29954001  0.68724341  0.76258952     0.10700
H928        H  0.34792511  0.56714923  0.80697934     0.16500
C929        C  0.46531971  0.62500105  0.62110123    -0.01700
C930        C  0.47773503  0.66679806  0.62734285     0.06900
C931        C  0.46105833  0.70513123  0.63153615    -0.07700
C932        C  0.43224281  0.70235745  0.62919455     0.04300
C933        C  0.41989812  0.66077309  0.62218493    -0.14900
C934        C  0.43675105  0.62227891  0.61869285    -0.08200
C935        C  0.50817266  0.67144091  0.62710193     0.05300
C936        C  0.52029253  0.69315585  0.60851248    -0.09400
C937        C  0.54859763  0.68918375  0.60445726     0.00300
C938        C  0.56533703  0.66314704  0.61933699     0.00100
C939        C  0.55337948  0.64369371  0.63869178    -0.12900
C940        C  0.52502937  0.64802333  0.64275980     0.00600
C941        C  0.55927237  0.70840817  0.58374526     0.39900
C942        C  0.51341031  0.62686326  0.66262899     0.36500
C943        C  0.48161105  0.58499212  0.61585613     0.36200
C944        C  0.41587635  0.74216458  0.63452460     0.37000
N945        N  0.56770552  0.72364017  0.56707842    -0.43800
N946        N  0.50402406  0.61006226  0.67857088    -0.44200
N947        N  0.40268429  0.77392301  0.63893162    -0.41600
N948        N  0.49469389  0.55300239  0.61165122    -0.43000
H949        H  0.42770849  0.59016082  0.61315562     0.13100
H950        H  0.47060617  0.73730613  0.63635583     0.09600
H951        H  0.50728068  0.71067435  0.59630962     0.10700
H952        H  0.56606299  0.62404273  0.65030593     0.16500
C953        C  0.33128242  0.39700263  0.27101467    -0.01700
C954        C  0.31294406  0.36678325  0.26003325     0.06900
C955        C  0.29426844  0.34102494  0.27295116    -0.07700
C956        C  0.29353656  0.34517470  0.29651370     0.04300
C957        C  0.31207657  0.37540103  0.30758044    -0.14900
C958        C  0.33076824  0.40091232  0.29446637    -0.08200
C959        C  0.31291420  0.36254234  0.23506892     0.05300
C960        C  0.33733540  0.34950937  0.22416822    -0.09400
C961        C  0.33940434  0.35113191  0.20064793     0.00300
C962        C  0.31651481  0.36536016  0.18759777     0.00100
C963        C  0.29154282  0.37543253  0.19843935    -0.12900
C964        C  0.28961403  0.37442018  0.22198258     0.00600
C965        C  0.36508770  0.33746400  0.19036844     0.39900
C966        C  0.26394892  0.38795351  0.23229121     0.36500
C967        C  0.35044988  0.42530301  0.25856044     0.36200
C968        C  0.27398329  0.31718325  0.30871636     0.37000
N969        N  0.38564914  0.32647617  0.18212965    -0.43800
N970        N  0.24335074  0.39867873  0.24054317    -0.44200
N971        N  0.25821256  0.29476500  0.31839233    -0.41600
N972        N  0.36586139  0.44782059  0.24856753    -0.43000
H973        H  0.34496665  0.42458348  0.30251501     0.13100
H974        H  0.28027548  0.31747472  0.26457269     0.09600
H975        H  0.35509435  0.33923761  0.23415168     0.10700
H976        H  0.27377292  0.38596164  0.18853513     0.16500
C977        C  0.46723888  0.38326359  0.37158758    -0.01700
C978        C  0.47932727  0.34042751  0.36676602     0.06900
C979        C  0.46223306  0.30164378  0.36491726    -0.07700
C980        C  0.43351976  0.30510045  0.36760007     0.04300
C981        C  0.42136196  0.34839879  0.37169285    -0.14900
C982        C  0.43862536  0.38702307  0.37343244    -0.08200
C983        C  0.50984528  0.33513767  0.36541348     0.05300
C984        C  0.52311483  0.30633957  0.38099711    -0.09400
C985        C  0.55194476  0.30524674  0.38261664     0.00300
C986        C  0.56814203  0.33382791  0.36849718     0.00100
C987        C  0.55481500  0.36044846  0.35194022    -0.12900
C988        C  0.52598005  0.36075352  0.35007700     0.00600
C989        C  0.56405400  0.27693532  0.40005596     0.39900
C990        C  0.51337063  0.38803757  0.33248902     0.36500
C991        C  0.48377476  0.42339399  0.37630485     0.36200
C992        C  0.41725812  0.26367140  0.36622588     0.37000
N993        N  0.57370915  0.25417331  0.41401919    -0.43800
N994        N  0.50318755  0.40996062  0.31845484    -0.44200
N995        N  0.40434263  0.23031151  0.36528126    -0.41600
N996        N  0.49693301  0.45557718  0.38019449    -0.43000
H997        H  0.42987174  0.42023910  0.37739278     0.13100
H998        H  0.47143065  0.26842708  0.36170311     0.09600
H999        H  0.51085462  0.28623413  0.39269761     0.10700
H1000       H  0.56694002  0.38186494  0.34072401     0.16500
C1001       C  0.38444801  0.45912821  0.48020942    -0.01700
C1002       C  0.36926680  0.49886062  0.48511331     0.06900
C1003       C  0.35317502  0.51929005  0.46823724    -0.07700
C1004       C  0.35072827  0.49933352  0.44688867     0.04300
C1005       C  0.36471891  0.45777526  0.44213660    -0.14900
C1006       C  0.38216424  0.43900442  0.45885223    -0.08200
C1007       C  0.36752188  0.51740692  0.50824768     0.05300
C1008       C  0.38689223  0.54987663  0.51551602    -0.09400
C1009       C  0.38387943  0.57166481  0.53641184     0.00300
C1010       C  0.36094663  0.56119513  0.55022333     0.00100
C1011       C  0.34240283  0.52689184  0.54330901    -0.12900
C1012       C  0.34550086  0.50509399  0.52249394     0.00600
C1013       C  0.40483184  0.60389024  0.54345352     0.39900
C1014       C  0.32545989  0.47100643  0.51577162     0.36500
C1015       C  0.40145794  0.43738532  0.49716240     0.36200
C1016       C  0.33219807  0.52094389  0.43098386     0.37000
N1017       N  0.42169167  0.62950691  0.54919678    -0.43800
N1018       N  0.30947648  0.44362433  0.51033963    -0.44200
N1019       N  0.31724532  0.53851119  0.41840427    -0.41600
N1020       N  0.41508289  0.41999279  0.51077347    -0.43000
H1021       H  0.39329468  0.40751322  0.45556683     0.13100
H1022       H  0.34149706  0.54996873  0.47212501     0.09600
H1023       H  0.40406463  0.55879137  0.50465791     0.10700
H1024       H  0.32476962  0.51841101  0.55374781     0.16500
C1025       C  0.16433585  0.09630451  0.77173551    -0.01700
C1026       C  0.18059761  0.12788213  0.75957870     0.06900
C1027       C  0.19663489  0.16000179  0.77132692    -0.07700
C1028       C  0.19675825  0.16099807  0.79493447     0.04300
C1029       C  0.18059053  0.12911492  0.80720717    -0.14900
C1030       C  0.16445009  0.09715356  0.79529646    -0.08200
C1031       C  0.18029353  0.12899207  0.73459607     0.05300
C1032       C  0.15533935  0.13816528  0.72346355    -0.09400
C1033       C  0.15378155  0.13827010  0.69992557     0.00300
C1034       C  0.17773560  0.12975237  0.68706657     0.00100
C1035       C  0.20289385  0.12180580  0.69825655    -0.12900
C1036       C  0.20429866  0.12097379  0.72183835     0.00600
C1037       C  0.12748068  0.14830734  0.68949894     0.39900
C1038       C  0.23030196  0.11009206  0.73253843     0.36500
C1039       C  0.14765211  0.06227966  0.76040960     0.36200
C1040       C  0.21275707  0.19633693  0.80591534     0.37000
N1041       N  0.10639295  0.15623177  0.68115193    -0.43800
N1042       N  0.25112163  0.10126236  0.74111055    -0.44200
N1043       N  0.22560073  0.22479678  0.81458395    -0.41600
N1044       N  0.13420803  0.03517849  0.75130037    -0.43000
H1045       H  0.15204642  0.07231959  0.80440732     0.13100
H1046       H  0.20873747  0.18488703  0.76197431     0.09600
H1047       H  0.13695396  0.14511049  0.73326427     0.10700
H1048       H  0.22137434  0.11497304  0.68855829     0.16500
C1049       C  0.29729189  0.88154746  0.60061821    -0.01700
C1050       C  0.28110773  0.89722188  0.61871653     0.06900
C1051       C  0.27825445  0.86928120  0.63789872    -0.07700
C1052       C  0.28979483  0.82517415  0.63872352     0.04300
C1053       C  0.30434510  0.80790951  0.61986973    -0.14900
C1054       C  0.30887164  0.83752890  0.60138756    -0.08200
C1055       C  0.26410503  0.93961698  0.61687879     0.05300
C1056       C  0.23549974  0.93460972  0.61468908    -0.09400
C1057       C  0.21813437  0.97280019  0.61320229     0.00300
C1058       C  0.22929666  0.01782476  0.61424332     0.00100
C1059       C  0.25818234  0.02269974  0.61583314    -0.12900
C1060       C  0.27554348  0.98411733  0.61715149     0.00600
C1061       C  0.18898467  0.96422537  0.61018693     0.39900
C1062       C  0.30492144  0.99089947  0.61937922     0.36500
C1063       C  0.30058400  0.90860219  0.58036276     0.36200
C1064       C  0.28578177  0.79825476  0.65894487     0.37000
N1065       N  0.16565327  0.95720456  0.60777474    -0.43800
N1066       N  0.32849964  0.99618950  0.62110554    -0.44200
N1067       N  0.28257042  0.77677191  0.67518124    -0.41600
N1068       N  0.30325009  0.93025733  0.56411981    -0.43000
H1069       H  0.31990529  0.82527307  0.58670666     0.13100
H1070       H  0.26604139  0.88139774  0.65197871     0.09600
H1071       H  0.22666873  0.90041225  0.61403875     0.10700
H1072       H  0.26722623  0.05668551  0.61664864     0.16500
C1073       C  0.21713916  0.36395684  0.64148191    -0.01700
C1074       C  0.20994599  0.39802354  0.62563091     0.06900
C1075       C  0.18965334  0.38850495  0.60946664    -0.07700
C1076       C  0.17806974  0.34458264  0.60767900     0.04300
C1077       C  0.18660968  0.30904357  0.62262085    -0.14900
C1078       C  0.20531988  0.32017763  0.64002569    -0.08200
C1079       C  0.22651973  0.44058399  0.62320096     0.05300
C1080       C  0.25332367  0.43653236  0.61473072    -0.09400
C1081       C  0.27007314  0.47508155  0.61177238     0.00300
C1082       C  0.26007729  0.51916685  0.61745499     0.00100
C1083       C  0.23281591  0.52336556  0.62526539    -0.12900
C1084       C  0.21603959  0.48444476  0.62818782     0.00600
C1085       C  0.29728534  0.46819609  0.60249825     0.39900
C1086       C  0.18856834  0.49002773  0.63704766     0.36500
C1087       C  0.23764175  0.37258291  0.65870040     0.36200
C1088       C  0.15945995  0.33660556  0.58901468     0.37000
N1089       N  0.31906544  0.46243622  0.59509645    -0.43800
N1090       N  0.16655887  0.49446987  0.64421145    -0.44200
N1091       N  0.14470000  0.33047334  0.57392595    -0.41600
N1092       N  0.25411420  0.37952149  0.67245971    -0.43000
H1093       H  0.21200387  0.29391964  0.65181456     0.13100
H1094       H  0.18426626  0.41465026  0.59716487     0.09600
H1095       H  0.26117301  0.40289910  0.61035608     0.10700
H1096       H  0.22493920  0.55682647  0.62985544     0.16500
C1097       C  0.28007898  0.26582695  0.48382004    -0.01700
C1098       C  0.25228538  0.27400198  0.48898703     0.06900
C1099       C  0.23645726  0.30279929  0.47501509    -0.07700
C1100       C  0.24808734  0.32319072  0.45577804     0.04300
C1101       C  0.27601691  0.31475621  0.45052800    -0.14900
C1102       C  0.29168185  0.28625364  0.46485868    -0.08200
C1103       C  0.23974836  0.25270425  0.50909422     0.05300
C1104       C  0.24800337  0.26802900  0.53046580    -0.09400
C1105       C  0.23733736  0.24794646  0.55000894     0.00300
C1106       C  0.21805006  0.21177594  0.54820304     0.00100
C1107       C  0.21008135  0.19611865  0.52675282    -0.12900
C1108       C  0.22095151  0.21605954  0.50722808     0.00600
C1109       C  0.24512619  0.26711949  0.57157579     0.39900
C1110       C  0.21290461  0.19806815  0.48550025     0.36500
C1111       C  0.29683873  0.23525064  0.49731392     0.36200
C1112       C  0.23122850  0.35328822  0.44215820     0.37000
N1113       N  0.25128552  0.28261811  0.58883467    -0.43800
N1114       N  0.20657753  0.18361532  0.46806498    -0.44200
N1115       N  0.21771719  0.37752638  0.43128768    -0.41600
N1116       N  0.31019705  0.21064751  0.50810476    -0.43000
H1117       H  0.31300690  0.27857759  0.46088984     0.13100
H1118       H  0.21505252  0.30931047  0.47918576     0.09600
H1119       H  0.26260689  0.29614201  0.53182345     0.10700
H1120       H  0.19509359  0.16859274  0.52527635     0.16500
C1121       C  0.20575259  0.87516227  0.22248614    -0.01700
C1122       C  0.18141689  0.87270702  0.23538618     0.06900
C1123       C  0.15588215  0.86967570  0.22434835    -0.07700
C1124       C  0.15418201  0.86983451  0.20076531     0.04300
C1125       C  0.17850788  0.87351665  0.18766923    -0.14900
C1126       C  0.20416242  0.87524037  0.19884167    -0.08200
C1127       C  0.18178817  0.87615218  0.26037340     0.05300
C1128       C  0.17091863  0.91570032  0.27032392    -0.09400
C1129       C  0.16988058  0.92026333  0.29379812     0.00300
C1130       C  0.17971418  0.88449352  0.30782985     0.00100
C1131       C  0.19113051  0.84526530  0.29783140    -0.12900
C1132       C  0.19204784  0.84071176  0.27429186     0.00600
C1133       C  0.15945574  0.96264831  0.30297658     0.39900
C1134       C  0.20266875  0.79878877  0.26482374     0.36500
C1135       C  0.23242864  0.87959543  0.23317675     0.36200
C1136       C  0.12719076  0.86522754  0.19058112     0.37000
N1137       N  0.15120377  0.99672004  0.31027405    -0.43800
N1138       N  0.21117964  0.76514413  0.25726174    -0.44200
N1139       N  0.10556692  0.86151545  0.18243611    -0.41600
N1140       N  0.25374741  0.88315514  0.24185099    -0.43000
H1141       H  0.22299298  0.87811293  0.18911525     0.13100
H1142       H  0.13715043  0.86749433  0.23426227     0.09600
H1143       H  0.16325769  0.94319315  0.25964807     0.10700
H1144       H  0.19858280  0.81750325  0.30842832     0.16500
C1145       C  0.20418386  0.77554620  0.48831114    -0.01700
C1146       C  0.23286445  0.77619651  0.49195185     0.06900
C1147       C  0.25002620  0.79690425  0.47578927    -0.07700
C1148       C  0.23899464  0.81619687  0.45595388     0.04300
C1149       C  0.21021192  0.81435240  0.45193660    -0.14900
C1150       C  0.19318478  0.79463624  0.46862775    -0.08200
C1151       C  0.24527126  0.75364172  0.51206815     0.05300
C1152       C  0.26110516  0.71394666  0.50903053    -0.09400
C1153       C  0.27297479  0.69121231  0.52751394     0.00300
C1154       C  0.26892329  0.70813806  0.54958148     0.00100
C1155       C  0.25245288  0.74719923  0.55263593    -0.12900
C1156       C  0.24087399  0.77023116  0.53411312     0.00600
C1157       C  0.28900612  0.65037196  0.52342081     0.36700
C1158       C  0.22556479  0.81188240  0.53803200     0.36500
C1159       C  0.18565463  0.75367202  0.50408144     0.36200
C1160       C  0.25763578  0.83816580  0.44034563     0.37000
N1161       N  0.30180518  0.61761378  0.52012930    -0.43800
N1162       N  0.21329780  0.84526660  0.54114686    -0.44200
N1163       N  0.27260058  0.85597981  0.42790973    -0.41600
N1164       N  0.17081027  0.73624734  0.51674174    -0.43000
H1165       H  0.17106475  0.79245552  0.46603388     0.13100
H1166       H  0.27213090  0.79780152  0.47866724     0.09600
H1167       H  0.26419612  0.70072347  0.49213642     0.10700
H1168       H  0.24980332  0.76116692  0.56943838     0.16500
C1169       C  0.13164008  0.99700734  0.52720225    -0.01700
C1170       C  0.12377210  0.02074074  0.50749789     0.06900
C1171       C  0.11722314  0.06731713  0.50876141    -0.07700
C1172       C  0.11947412  0.09116135  0.52910601     0.04300
C1173       C  0.12858868  0.06805599  0.54893763    -0.14900
C1174       C  0.13396357  0.02064302  0.54765860    -0.08200
C1175       C  0.12417980  0.99865300  0.48505372     0.05300
C1176       C  0.10429669  0.96544610  0.47965248    -0.09400
C1177       C  0.10462163  0.94342186  0.45865343     0.00300
C1178       C  0.12524806  0.95465923  0.44272145     0.00100
C1179       C  0.14455555  0.98903064  0.44804010    -0.12900
C1180       C  0.14425748  0.01080598  0.46897231     0.00600
C1181       C  0.08325506  0.91033315  0.45376965     0.39900
C1182       C  0.16549467  0.04417049  0.47391753     0.36500
C1183       C  0.13863723  0.94891206  0.52661176     0.36200
C1184       C  0.11302481  0.13949666  0.52857083     0.37000
N1185       N  0.06602795  0.88398004  0.44985503    -0.43800
N1186       N  0.18254139  0.07082408  0.47786626    -0.44200
N1187       N  0.10782673  0.17820370  0.52799047    -0.41600
N1188       N  0.14421937  0.91036205  0.52612757    -0.43000
H1189       H  0.14079883  0.00202933  0.56251698     0.13100
H1190       H  0.11101250  0.08541633  0.49354853     0.09600
H1191       H  0.08855788  0.95668985  0.49191161     0.10700
H1192       H  0.16073696  0.99771389  0.43615090     0.16500
C1193       C  0.21848034  0.53553499  0.38355089    -0.01700
C1194       C  0.22857998  0.57876013  0.37662132     0.06900
C1195       C  0.25647140  0.58270156  0.37074265    -0.07700
C1196       C  0.27411045  0.54472441  0.37103809     0.04300
C1197       C  0.26407697  0.50090256  0.37774495    -0.14900
C1198       C  0.23613280  0.49731422  0.38408408    -0.08200
C1199       C  0.21112919  0.62104826  0.37627522     0.05300
C1200       C  0.19871438  0.63583029  0.39633355    -0.09400
C1201       C  0.18588987  0.67881650  0.39768410     0.00300
C1202       C  0.18561910  0.70850310  0.37870296     0.00100
C1203       C  0.19679112  0.69267789  0.35830861    -0.12900
C1204       C  0.20918053  0.64931515  0.35690154     0.00600
C1205       C  0.17537334  0.69293653  0.41935600     0.39900
C1206       C  0.22018550  0.63485715  0.33545987     0.36500
C1207       C  0.18993339  0.52924998  0.38969838     0.36200
C1208       C  0.30238038  0.55264368  0.36440915     0.37000
N1209       N  0.16695075  0.70422804  0.43672077    -0.43800
N1210       N  0.22902250  0.62317480  0.31829920    -0.44200
N1211       N  0.32498401  0.55933144  0.35907445    -0.41600
N1212       N  0.16706250  0.52423462  0.39468468    -0.43000
H1213       H  0.22783505  0.46440624  0.38926277     0.13100
H1214       H  0.26462296  0.61599849  0.36596799     0.09600
H1215       H  0.20031924  0.61473197  0.41137665     0.10700
H1216       H  0.19661235  0.71485044  0.34358280     0.16500
C1217       C  0.23037301  0.08221100  0.38207321    -0.01700
C1218       C  0.25928902  0.07921699  0.38009829     0.06900
C1219       C  0.27177723  0.03589457  0.38016508    -0.07700
C1220       C  0.25579534  0.99568929  0.38108618     0.04300
C1221       C  0.22659907  0.99853933  0.38182184    -0.14900
C1222       C  0.21436506  0.04224992  0.38267473    -0.08200
C1223       C  0.27657092  0.12127701  0.37839513     0.05300
C1224       C  0.29333255  0.13365081  0.39668135    -0.09400
C1225       C  0.30609096  0.17681585  0.39748761     0.00300
C1226       C  0.30202748  0.20872638  0.37962826     0.00100
C1227       C  0.28704762  0.19447618  0.36050197    -0.12900
C1228       C  0.27454045  0.15115829  0.35971273     0.00600
C1229       C  0.32137698  0.18823983  0.41767322     0.39900
C1230       C  0.25906849  0.13848084  0.33981434     0.36500
C1231       C  0.21673831  0.12604884  0.38397122     0.36200
C1232       C  0.26999410  0.95225716  0.38047258     0.37000
N1233       N  0.33362748  0.19721574  0.43387118    -0.43800
N1234       N  0.24670900  0.12819427  0.32386748    -0.44200
N1235       N  0.28144047  0.91748175  0.38003860    -0.41600
N1236       N  0.20597133  0.16127085  0.38557637    -0.43000
H1237       H  0.19212478  0.04534221  0.38384246     0.13100
H1238       H  0.29405748  0.03351133  0.37910463     0.09600
H1239       H  0.29520961  0.11046350  0.41095021     0.10700
H1240       H  0.28415349  0.21791270  0.34645418     0.16500
C1241       C  0.83449111  0.08423658  0.71783917    -0.01700
C1242       C  0.81898333  0.11648758  0.73006109     0.06900
C1243       C  0.80201810  0.14748683  0.71835125    -0.07700
C1244       C  0.80027294  0.14674415  0.69476366     0.04300
C1245       C  0.81601663  0.11468240  0.68244940    -0.14900
C1246       C  0.83294875  0.08366413  0.69430376    -0.08200
C1247       C  0.82011432  0.11837798  0.75505932     0.05300
C1248       C  0.84534831  0.12773933  0.76579485    -0.09400
C1249       C  0.84724907  0.12933238  0.78936252     0.00300
C1250       C  0.82339374  0.12210795  0.80259517     0.00100
C1251       C  0.79810815  0.11338536  0.79175702    -0.12900
C1252       C  0.79635081  0.11107735  0.76823747     0.00600
C1253       C  0.87372046  0.13971001  0.79942004     0.39900
C1254       C  0.77016176  0.09952402  0.75802217     0.36500
C1255       C  0.85172341  0.05077194  0.72904769     0.36200
C1256       C  0.78292010  0.18028883  0.68377955     0.37000
N1257       N  0.89493964  0.14797913  0.80746491    -0.43800
N1258       N  0.74923792  0.09020398  0.74975265    -0.44200
N1259       N  0.76890673  0.20718650  0.67509115    -0.41600
N1260       N  0.86558176  0.02396810  0.73797768    -0.43000
H1261       H  0.84498041  0.05855177  0.68515592     0.13100
H1262       H  0.79025211  0.17261540  0.72771387     0.09600
H1263       H  0.86361087  0.13390154  0.75568796     0.10700
H1264       H  0.77973939  0.10716207  0.80172103     0.16500
C1265       C  0.02760838  0.20411289  0.62976616    -0.01700
C1266       C  0.01053153  0.16596897  0.62511118     0.06900
C1267       C  0.02275064  0.12493098  0.61812305    -0.07700
C1268       C  0.05132218  0.12109894  0.61578824     0.04300
C1269       C  0.06868316  0.15897927  0.62074346    -0.14900
C1270       C  0.05642818  0.20035930  0.62759975    -0.08200
C1271       C  0.97978620  0.16808477  0.62568833     0.05300
C1272       C  0.96597425  0.19722586  0.61056641    -0.09400
C1273       C  0.93732761  0.19409302  0.60742580     0.00300
C1274       C  0.92182692  0.16096232  0.61956831     0.00100
C1275       C  0.93557446  0.13349840  0.63556615    -0.12900
C1276       C  0.96418482  0.13694611  0.63876150     0.00600
C1277       C  0.92494088  0.22286461  0.59030608     0.39900
C1278       C  0.97723976  0.10745546  0.65523118     0.36500
C1279       C  0.01603671  0.24724569  0.63688602     0.36200
C1280       C  0.06188371  0.07861585  0.60678084     0.37000
N1281       N  0.91506085  0.24587810  0.57654914    -0.43800
N1282       N  0.98777460  0.08386220  0.66840752    -0.44200
N1283       N  0.07030537  0.04468521  0.59945120    -0.41600
N1284       N  0.00673311  0.28185977  0.64253747    -0.43000
H1285       H  0.06935089  0.22983972  0.63121171     0.13100
H1286       H  0.00972505  0.09594689  0.61378886     0.09600
H1287       H  0.97783364  0.22080353  0.60022995     0.10700
H1288       H  0.92403859  0.10834657  0.64522265     0.16500
C1289       C  0.78055882  0.22907385  0.50476862    -0.01700
C1290       C  0.75171709  0.23038840  0.50223360     0.06900
C1291       C  0.73495492  0.20984642  0.51872301    -0.07700
C1292       C  0.74656683  0.18909230  0.53792371     0.04300
C1293       C  0.77555798  0.18843139  0.54068748    -0.14900
C1294       C  0.79212206  0.20808656  0.52367495    -0.08200
C1295       C  0.73896117  0.25242938  0.48221323     0.05300
C1296       C  0.74548007  0.23557633  0.46075181    -0.09400
C1297       C  0.73453922  0.25574959  0.44130317     0.00300
C1298       C  0.71628553  0.29326460  0.44318403     0.00100
C1299       C  0.70979639  0.31020208  0.46469634    -0.12900
C1300       C  0.72113021  0.29035705  0.48414911     0.00600
C1301       C  0.74124887  0.23553569  0.41979066     0.39900
C1302       C  0.71446905  0.30980933  0.50583815     0.36500
C1303       C  0.79878940  0.25060622  0.48862749     0.36200
C1304       C  0.72825251  0.16855829  0.55423534     0.37000
N1305       N  0.74669168  0.21937715  0.40256542    -0.43800
N1306       N  0.70914068  0.32534976  0.52323077    -0.44200
N1307       N  0.71350522  0.15209736  0.56727652    -0.41600
N1308       N  0.81337678  0.26778055  0.47568489    -0.43000
H1309       H  0.81440819  0.20866317  0.52538988     0.13100
H1310       H  0.71271959  0.21013814  0.51657803     0.09600
H1311       H  0.75901645  0.20616613  0.45923100     0.10700
H1312       H  0.69565586  0.33879266  0.46630402     0.16500
C1313       C  0.76368897  0.34242516  0.62967955    -0.01700
C1314       C  0.76796022  0.37519892  0.61250557     0.06900
C1315       C  0.78852540  0.36713479  0.59642447    -0.07700
C1316       C  0.80332786  0.32573697  0.59618935     0.04300
C1317       C  0.79760693  0.29102291  0.61240789    -0.14900
C1318       C  0.77833780  0.30098715  0.62948446    -0.08200
C1319       C  0.75069709  0.41741049  0.61061157     0.05300
C1320       C  0.76304087  0.46049860  0.61357800    -0.09400
C1321       C  0.74741178  0.50094457  0.61230082     0.00300
C1322       C  0.71869074  0.49881867  0.60778244     0.00100
C1323       C  0.70650424  0.45552973  0.60445564    -0.12900
C1324       C  0.72220541  0.41518606  0.60563564     0.00600
C1325       C  0.76123281  0.54383316  0.61686821     0.39900
C1326       C  0.70873417  0.37190766  0.60122827     0.36500
C1327       C  0.74411584  0.35034843  0.64756263     0.36200
C1328       C  0.82321597  0.31951230  0.57838373     0.37000
N1329       N  0.77231633  0.57817897  0.62059180    -0.43800
N1330       N  0.69797703  0.33720024  0.59768504    -0.44200
N1331       N  0.83914879  0.31473629  0.56408330    -0.41600
N1332       N  0.72843605  0.35670308  0.66189516    -0.43000
H1333       H  0.77384693  0.27564703  0.64235090     0.13100
H1334       H  0.79230035  0.39265319  0.58344504     0.09600
H1335       H  0.78492233  0.46245888  0.61735198     0.10700
H1336       H  0.68460190  0.45315697  0.60081934     0.16500
C1337       C  0.69967081  0.86230491  0.59367968    -0.01700
C1338       C  0.71658892  0.87515410  0.61202288     0.06900
C1339       C  0.71764113  0.84650678  0.63108305    -0.07700
C1340       C  0.70355012  0.80437773  0.63155075     0.04300
C1341       C  0.68820937  0.78972241  0.61246520    -0.14900
C1342       C  0.68573912  0.82006183  0.59401615    -0.08200
C1343       C  0.73403915  0.91745112  0.61134249     0.05300
C1344       C  0.72142352  0.96067668  0.61093801    -0.09400
C1345       C  0.73718481  0.00116692  0.61045953     0.00300
C1346       C  0.76646729  0.99901352  0.61021503     0.00100
C1347       C  0.77894939  0.95541095  0.61053197    -0.12900
C1348       C  0.76311505  0.91505760  0.61109646     0.00600
C1349       C  0.72253156  0.04418808  0.61115259     0.39900
C1350       C  0.77718686  0.87145164  0.61100469     0.36500
C1351       C  0.69749764  0.89073642  0.57377363     0.36200
C1352       C  0.70526932  0.77709412  0.65187592     0.37000
N1353       N  0.71066309  0.07855561  0.61179605    -0.43800
N1354       N  0.78843352  0.83648127  0.61094394    -0.44200
N1355       N  0.70659495  0.75548950  0.66825347    -0.41600
N1356       N  0.69570686  0.91358024  0.55783821    -0.43000
H1357       H  0.67413283  0.80978466  0.57919544     0.13100
H1358       H  0.72997189  0.85678003  0.64551761     0.09600
H1359       H  0.69908488  0.96277268  0.61130861     0.10700
H1360       H  0.80125622  0.95266963  0.61027485     0.16500
C1361       C  0.84171654  0.85601651  0.21885557    -0.01700
C1362       C  0.81695545  0.85673382  0.23114103     0.06900
C1363       C  0.79169476  0.85810821  0.21960761    -0.07700
C1364       C  0.79079153  0.86030016  0.19600610     0.04300
C1365       C  0.81568404  0.86088105  0.18354492    -0.14900
C1366       C  0.84090491  0.85784878  0.19530032    -0.08200
C1367       C  0.81697209  0.85900915  0.25605035     0.05300
C1368       C  0.82512750  0.89995103  0.26643973    -0.09400
C1369       C  0.82446940  0.90445447  0.28992172     0.00300
C1370       C  0.81553844  0.86720947  0.30344025     0.00100
C1371       C  0.80753362  0.82614088  0.29288063    -0.12900
C1372       C  0.80821002  0.82180027  0.26939345     0.00600
C1373       C  0.83198992  0.94825596  0.29947693     0.39900
C1374       C  0.80034219  0.77865515  0.25935484     0.36500
C1375       C  0.86816893  0.85354130  0.23008434     0.36200
C1376       C  0.76409663  0.86432697  0.18530831     0.37000
N1377       N  0.83798298  0.98342826  0.30706285    -0.43800
N1378       N  0.79410110  0.74403636  0.25130965    -0.44200
N1379       N  0.74263904  0.86762277  0.17683864    -0.41600
N1380       N  0.88936450  0.85155654  0.23907888    -0.43000
H1381       H  0.86014538  0.85725948  0.18607480     0.13100
H1382       H  0.77264261  0.85890254  0.22914821     0.09600
H1383       H  0.83162241  0.92873070  0.25608934     0.10700
H1384       H  0.80107230  0.79708068  0.30301494     0.16500
C1385       C  0.96689221  0.80723681  0.37924973    -0.01700
C1386       C  0.97979225  0.83340192  0.36223290     0.06900
C1387       C  0.96334462  0.85662280  0.34637326    -0.07700
C1388       C  0.93449928  0.85687235  0.34824205     0.04300
C1389       C  0.92160821  0.83355746  0.36637927    -0.14900
C1390       C  0.93811995  0.80733139  0.38110930    -0.08200
C1391       C  0.01020943  0.84051056  0.36219415     0.05300
C1392       C  0.02791046  0.80294333  0.35934032    -0.09400
C1393       C  0.05656533  0.80777641  0.36193955     0.00300
C1394       C  0.06801599  0.85114382  0.36726185     0.00100
C1395       C  0.05024519  0.88906034  0.36893613    -0.12900
C1396       C  0.02166243  0.88403760  0.36670358     0.00600
C1397       C  0.07358517  0.76762796  0.35915046     0.39900
C1398       C  0.00440135  0.92352651  0.37067129     0.36500
C1399       C  0.98276652  0.78261849  0.39600899     0.36200
C1400       C  0.91879271  0.88157826  0.33140994     0.37000
N1401       N  0.08719877  0.73539934  0.35694189    -0.43800
N1402       N  0.99054217  0.95507719  0.37393184    -0.44200
N1403       N  0.90624868  0.90127546  0.31785820    -0.41600
N1404       N  0.99547509  0.76285178  0.40942741    -0.43000
H1405       H  0.92871226  0.78898920  0.39505435     0.13100
H1406       H  0.97316903  0.87598177  0.33295760     0.09600
H1407       H  0.01921305  0.76948410  0.35568348     0.10700
H1408       H  0.05852574  0.92249351  0.37323689     0.16500
C1409       C  0.85031959  0.93694084  0.48304218    -0.01700
C1410       C  0.86812397  0.97517215  0.48441851     0.06900
C1411       C  0.88351118  0.98809704  0.46537636    -0.07700
C1412       C  0.88067735  0.96447726  0.44493814     0.04300
C1413       C  0.86278176  0.92635798  0.44360414    -0.14900
C1414       C  0.84818541  0.91255364  0.46287847    -0.08200
C1415       C  0.86982896  0.00313330  0.50527398     0.05300
C1416       C  0.87747532  0.98196054  0.52565734    -0.09400
C1417       C  0.87600627  0.00571766  0.54610456     0.00300
C1418       C  0.86761634  0.05209126  0.54623346     0.00100
C1419       C  0.86153876  0.07394601  0.52565941    -0.12900
C1420       C  0.86211955  0.04975687  0.50533426     0.00600
C1421       C  0.88280061  0.98148260  0.56666565     0.39900
C1422       C  0.85264597  0.07255472  0.48507527     0.36500
C1423       C  0.83269752  0.92376067  0.50158876     0.36200
C1424       C  0.89647611  0.97975321  0.42571930     0.37000
N1425       N  0.88809615  0.96194784  0.58314294    -0.43800
N1426       N  0.84491303  0.09068382  0.46885403    -0.44200
N1427       N  0.90909101  0.99209786  0.41030305    -0.41600
N1428       N  0.81846019  0.91335290  0.51638700    -0.43000
H1429       H  0.83403798  0.88380977  0.46188884     0.13100
H1430       H  0.89735690  0.01727043  0.46639182     0.09600
H1431       H  0.88366656  0.94624800  0.52565694     0.10700
H1432       H  0.85457602  0.10927089  0.52559100     0.16500
C1433       C  0.76982555  0.78386890  0.48273097    -0.01700
C1434       C  0.74622356  0.75571368  0.48148334     0.06900
C1435       C  0.73296176  0.74970490  0.46055323    -0.07700
C1436       C  0.74376910  0.76921380  0.44082406     0.04300
C1437       C  0.76845034  0.79477976  0.44192493    -0.14900
C1438       C  0.78095338  0.80242462  0.46299890    -0.08200
C1439       C  0.73410730  0.73417461  0.50189483     0.05300
C1440       C  0.70738451  0.74693579  0.50796542    -0.09400
C1441       C  0.69474541  0.72811236  0.52694819     0.00300
C1442       C  0.70880671  0.69499664  0.54024293     0.00100
C1443       C  0.73579566  0.68262102  0.53440036    -0.12900
C1444       C  0.74844996  0.70165216  0.51524625     0.00600
C1445       C  0.66775492  0.74523527  0.53288704     0.39900
C1446       C  0.77583371  0.68654036  0.50936679     0.36500
C1447       C  0.78272212  0.79482497  0.50404916     0.36200
C1448       C  0.73006993  0.76033515  0.41959806     0.37000
N1449       N  0.64618440  0.75909077  0.53762728    -0.43800
N1450       N  0.79784805  0.67457800  0.50474518    -0.44200
N1451       N  0.71905772  0.75333626  0.40259063    -0.41600
N1452       N  0.79302770  0.80365230  0.52113866    -0.43000
H1453       H  0.79979105  0.82238514  0.46398343     0.13100
H1454       H  0.71440578  0.72895846  0.45959301     0.09600
H1455       H  0.69648535  0.77237924  0.49796436     0.10700
H1456       H  0.74677302  0.65753121  0.54453407     0.16500
C1457       C  0.76034678  0.06912759  0.37503533    -0.01700
C1458       C  0.73135568  0.06605051  0.37437341     0.06900
C1459       C  0.71887936  0.02273698  0.37510698    -0.07700
C1460       C  0.73480479  0.98256823  0.37598962     0.04300
C1461       C  0.76412167  0.98527462  0.37604138    -0.14900
C1462       C  0.77637043  0.02917475  0.37579918    -0.08200
C1463       C  0.71388683  0.10794133  0.37344489     0.05300
C1464       C  0.71275358  0.13378733  0.35344472    -0.09400
C1465       C  0.69941935  0.17648655  0.35279315     0.00300
C1466       C  0.68699674  0.19412426  0.37252791     0.00100
C1467       C  0.68643165  0.16636926  0.39201713    -0.12900
C1468       C  0.69988484  0.12390062  0.39265703     0.00600
C1469       C  0.69906302  0.20159509  0.33175522     0.39900
C1470       C  0.70079569  0.09889174  0.41370624     0.36500
C1471       C  0.77410001  0.11308715  0.37535291     0.36200
C1472       C  0.72020415  0.93941476  0.37690315     0.37000
N1473       N  0.69868827  0.22167465  0.31488121    -0.43800
N1474       N  0.70162435  0.07895146  0.43060511    -0.44200
N1475       N  0.70841254  0.90490657  0.37767347    -0.41600
N1476       N  0.78509569  0.14832830  0.37567612    -0.43000
H1477       H  0.79865079  0.03256457  0.37604400     0.13100
H1478       H  0.69653584  0.02034421  0.37492983     0.09600
H1479       H  0.72307974  0.12116516  0.33849093     0.10700
H1480       H  0.67721452  0.17925839  0.40739538     0.16500
C1481       C  0.80170689  0.61290275  0.38578441    -0.01700
C1482       C  0.78042320  0.60067664  0.37063120     0.06900
C1483       C  0.77264698  0.63194530  0.35374298    -0.07700
C1484       C  0.78400905  0.67607174  0.35285819     0.04300
C1485       C  0.80397911  0.68962652  0.36902035    -0.14900
C1486       C  0.81356260  0.65680371  0.38463355    -0.08200
C1487       C  0.76330120  0.55862543  0.37368269     0.05300
C1488       C  0.73521673  0.56430523  0.37857008    -0.09400
C1489       C  0.71738150  0.52666701  0.38011331     0.00300
C1490       C  0.72752849  0.48177029  0.37662814     0.00100
C1491       C  0.75594035  0.47595323  0.37264336    -0.12900
C1492       C  0.77377752  0.51386439  0.37102115     0.00600
C1493       C  0.68887544  0.53535345  0.38567533     0.39900
C1494       C  0.80241952  0.50607357  0.36570247     0.36500
C1495       C  0.80998180  0.58273215  0.40392184     0.36200
C1496       C  0.77368794  0.70729103  0.33585550     0.37000
N1497       N  0.66607276  0.54248231  0.39018469    -0.43800
N1498       N  0.82541260  0.49977984  0.36154950    -0.44200
N1499       N  0.76513381  0.73219194  0.32230629    -0.41600
N1500       N  0.81666494  0.55862252  0.41848248    -0.43000
H1501       H  0.82863723  0.66665779  0.39730332     0.13100
H1502       H  0.75646664  0.62259911  0.34190559     0.09600
H1503       H  0.72711806  0.59859786  0.38101289     0.10700
H1504       H  0.76409134  0.44181407  0.36991876     0.16500
loop_ 
_geom_bond_atom_site_label_1 
_geom_bond_atom_site_label_2 
_geom_bond_distance 
_geom_bond_site_symmetry_2 
_ccdc_geom_bond_type 
Fe1          O17   2.064       .  S
Fe1           O7   2.065       .  S
Fe1          O14   2.066       .  S
Fe1           O6   2.068       .  S
Fe1          O12   1.979       .  S
Fe2           O5   2.072       .  S
Fe2           O9   2.060       .  S
Fe2          O13   2.060       .  S
Fe2          O18   2.049       .  S
Fe2          O12   1.973       .  S
Fe3          O21   2.058       .  S
Fe3           O8   2.074       .  S
Fe3          O15   2.068       .  S
Fe3           O4   2.065       .  S
Fe3          O12   1.974       .  S
O4           C11   1.264       .  A
O5           C19   1.270       .  A
O6           C11   1.266       .  A
O7           C10   1.273       .  A
O8           C20   1.273       .  A
O9           C22   1.266       .  A
C10          O15   1.275       .  A
C10        C1370   1.481       .  S
C11        C1461   1.502       .  S
O13          C16   1.270       .  A
O14          C16   1.271       .  A
C16        C1413   1.476       .  S
O17          C22   1.266       .  A
O18          C20   1.267       .  A
C19          O21   1.266       .  A
C19        C1485   1.488       .  S
C20        C1437   1.474       .  S
C22        C1389   1.490       .  S
Fe23         O39   2.096       .  S
Fe23         O29   2.038       .  S
Fe23         O36   2.044       .  S
Fe23         O28   2.089       .  S
Fe23         O34   1.950       .  S
Fe24         O27   2.090       .  S
Fe24         O31   2.054       .  S
Fe24         O35   2.086       .  S
Fe24         O40   2.028       .  S
Fe24         O34   1.945       .  S
Fe25         O43   2.058       .  S
Fe25         O30   2.101       .  S
Fe25         O37   2.096       .  S
Fe25         O26   2.067       .  S
Fe25         O34   1.949       .  S
O26          C33   1.268       .  A
O27          C41   1.273       .  A
O28          C33   1.272       .  A
O29          C32   1.271       .  A
O30          C42   1.278       .  A
O31          C44   1.267       .  A
C32          O37   1.279       .  A
C32        C1245   1.482       .  S
C33        C1346   1.501   1_545  S
O35          C38   1.274       .  A
O36          C38   1.267       .  A
C38        C1418   1.478       .  S
O39          C44   1.275       .  A
O40          C42   1.266       .  A
C41          O43   1.269       .  A
C41        C1317   1.502       .  S
C42        C1293   1.488       .  S
C44        C1274   1.492       .  S
Fe45         O61   2.045       .  S
Fe45         O51   2.070       .  S
Fe45         O58   2.085       .  S
Fe45         O50   2.049       .  S
Fe45         O56   1.954       .  S
Fe46         O49   2.039       .  S
Fe46         O53   2.087       .  S
Fe46         O57   2.056       .  S
Fe46         O62   2.081       .  S
Fe46         O56   1.952       .  S
Fe47         O65   2.101       .  S
Fe47         O52   2.061       .  S
Fe47         O59   2.069       .  S
Fe47         O48   2.098       .  S
Fe47         O56   1.952       .  S
O48          C55   1.280       .  A
O49          C63   1.268       .  A
O50          C55   1.273       .  A
O51          C54   1.268       .  A
O52          C64   1.268       .  A
O53          C66   1.273       .  A
C54          O59   1.267       .  A
C54        C1221   1.493       .  S
C55        C1130   1.481       .  S
O57          C60   1.267       .  A
O58          C60   1.272       .  A
C60        C1394   1.489       .  S
O61          C66   1.268       .  A
O62          C64   1.272       .  A
C63          O65   1.278       .  A
C63        C1149   1.493       .  S
C64        C1202   1.489       .  S
C66        C1178   1.481       .  S
Fe67         O83   2.058       .  S
Fe67         O73   2.063       .  S
Fe67         O80   2.069       .  S
Fe67         O72   2.050       .  S
Fe67         O78   1.950       .  S
Fe68         O71   2.044       .  S
Fe68         O75   2.078       .  S
Fe68         O79   2.067       .  S
Fe68         O84   2.072       .  S
Fe68         O78   1.955       .  S
Fe69         O87   2.075       .  S
Fe69         O74   2.066       .  S
Fe69         O81   2.081       .  S
Fe69         O70   2.084       .  S
Fe69         O78   1.959       .  S
O70          C77   1.277       .  A
O71          C85   1.267       .  A
O72          C77   1.273       .  A
O73          C76   1.265       .  A
O74          C86   1.271       .  A
O75          C88   1.273       .  A
C76          O81   1.268       .  A
C76        C1058   1.498       .  S
C77        C1034   1.477       .  S
O79          C82   1.266       .  A
O80          C82   1.267       .  A
C82        C1269   1.490       .  S
O83          C88   1.273       .  A
O84          C86   1.270       .  A
C85          O87   1.273       .  A
C85        C1106   1.470       .  S
C86        C1077   1.496       .  S
C88        C1173   1.492       .  S
Fe89        O105   2.077       .  S
Fe89         O95   2.048       .  S
Fe89        O102   2.053       .  S
Fe89         O94   2.071       .  S
Fe89        O100   1.946       .  S
Fe90         O93   2.076       .  S
Fe90         O97   2.056       .  S
Fe90        O101   2.086       .  S
Fe90        O106   2.033       .  S
Fe90        O100   1.947       .  S
Fe91        O109   2.063       .  S
Fe91         O96   2.088       .  S
Fe91        O103   2.092       .  S
Fe91         O92   2.076       .  S
Fe91        O100   1.954       .  S
O92          C99   1.269       .  A
O93         C107   1.271       .  A
O94          C99   1.267       .  A
O95          C98   1.274       .  A
O96         C108   1.275       .  A
O97         C110   1.265       .  A
C98         O103   1.278       .  A
C98         C957   1.487       .  S
C99        C1197   1.502       .  S
O101        C104   1.275       .  A
O102        C104   1.270       .  A
C104       C1005   1.489       .  S
O105        C110   1.270       .  A
O106        C108   1.266       .  A
C107        O109   1.270       .  A
C107       C1226   1.492       .  S
C108       C1101   1.479       .  S
C110        C981   1.488       .  S
Fe111       O127   2.067       .  S
Fe111       O117   2.047       .  S
Fe111       O124   2.053       .  S
Fe111       O116   2.056       .  S
Fe111       O122   1.948       .  S
Fe112       O115   2.079       .  S
Fe112       O119   2.064       .  S
Fe112       O123   2.086       .  S
Fe112       O128   2.048       .  S
Fe112       O122   1.951       .  S
Fe113       O131   2.065       .  S
Fe113       O118   2.098       .  S
Fe113       O125   2.098       .  S
Fe113       O114   2.076       .  S
Fe113       O122   1.954       .  S
O114        C121   1.270       .  A
O115        C129   1.272       .  A
O116        C121   1.265       .  A
O117        C120   1.271       .  A
O118        C130   1.278       .  A
O119        C132   1.269       .  A
C120        O125   1.279       .  A
C120        C909   1.485       .  S
C121       C1082   1.485       .  S
O123        C126   1.273       .  A
O124        C126   1.268       .  A
C126       C1010   1.481       .  S
O127        C132   1.269       .  A
O128        C130   1.269       .  A
C129        O131   1.269       .  A
C129       C1053   1.496       .  S
C130       C1154   1.479       .  S
C132        C933   1.483       .  S
Fe133       O149   2.057       .  S
Fe133       O139   2.079       .  S
Fe133       O146   2.089       .  S
Fe133       O138   2.059       .  S
Fe133       O144   1.944       .  S
Fe134       O137   2.043       .  S
Fe134       O141   2.087       .  S
Fe134       O145   2.052       .  S
Fe134       O150   2.084       .  S
Fe134       O144   1.951       .  S
Fe135       O153   2.084       .  S
Fe135       O140   2.061       .  S
Fe135       O147   2.066       .  S
Fe135       O136   2.088       .  S
Fe135       O144   1.949       .  S
O136        C143   1.276       .  A
O137        C151   1.267       .  A
O138        C143   1.273       .  A
O139        C142   1.271       .  A
O140        C152   1.269       .  A
O141        C154   1.272       .  A
C142        O147   1.269       .  A
C142       C1490   1.490       .  S
C143        C861   1.480       .  S
O145        C148   1.267       .  A
O146        C148   1.274       .  A
C148        C986   1.486       .  S
O149        C154   1.269       .  A
O150        C152   1.273       .  A
C151        O153   1.274       .  A
C151       C1298   1.475       .  S
C152       C1466   1.490       .  S
C154        C885   1.476       .  S
Fe155       O171   2.057       .  S
Fe155       O161   2.086       .  S
Fe155       O168   2.094       .  S
Fe155       O160   2.054       .  S
Fe155       O166   1.951       .  S
Fe156       O159   2.030       .  S
Fe156       O163   2.087       .  S
Fe156       O167   2.046       .  S
Fe156       O172   2.093       .  S
Fe156       O166   1.947       .  S
Fe157       O175   2.105       .  S
Fe157       O162   2.059       .  S
Fe157       O169   2.066       .  S
Fe157       O158   2.092       .  S
Fe157       O166   1.950       .  S
O158        C165   1.278       .  A
O159        C173   1.264       .  A
O160        C165   1.272       .  A
O161        C164   1.272       .  A
O162        C174   1.268       .  A
O163        C176   1.274       .  A
C164        O169   1.270       .  A
C164       C1322   1.494       .  S
C165        C842   1.488       .  S
O167        C170   1.267       .  A
O168        C170   1.275       .  A
C170        C938   1.481       .  S
O171        C176   1.269       .  A
O172        C174   1.275       .  A
C173        O175   1.277       .  A
C173       C1442   1.479       .  S
C174       C1341   1.497       .  S
C176        C890   1.491       .  S
Fe177       O193   2.065       .  S
Fe177       O183   2.076       .  S
Fe177       O190   2.089       .  S
Fe177       O182   2.051       .  S
Fe177       O188   1.950       .  S
Fe178       O181   2.030       .  S
Fe178       O185   2.083       .  S
Fe178       O189   2.053       .  S
Fe178       O194   2.079       .  S
Fe178       O188   1.952       .  S
Fe179       O197   2.095       .  S
Fe179       O184   2.055       .  S
Fe179       O191   2.063       .  S
Fe179       O180   2.090       .  S
Fe179       O188   1.954       .  S
O180        C187   1.278       .  A
O181        C195   1.267       .  A
O182        C187   1.273       .  A
O183        C186   1.268       .  A
O184        C196   1.266       .  A
O185        C198   1.272       .  A
C186        O191   1.267       .  A
C186        C789   1.499       .  S
C187       C1365   1.486       .  S
O189        C192   1.267       .  A
O190        C192   1.273       .  A
C192        C717   1.483       .  S
O193        C198   1.271       .  A
O194        C196   1.271       .  A
C195        O197   1.277       .  A
C195        C765   1.489       .  S
C196        C818   1.487       .  S
C198        C746   1.489       .  S
Fe199       O215   2.065       .  S
Fe199       O205   2.067       .  S
Fe199       O212   2.079       .  S
Fe199       O204   2.056       .  S
Fe199       O210   1.951       .  S
Fe200       O203   2.037       .  S
Fe200       O207   2.089       .  S
Fe200       O211   2.062       .  S
Fe200       O216   2.079       .  S
Fe200       O210   1.950       .  S
Fe201       O219   2.088       .  S
Fe201       O206   2.069       .  S
Fe201       O213   2.075       .  S
Fe201       O202   2.088       .  S
Fe201       O210   1.953       .  S
O202        C209   1.279       .  A
O203        C217   1.268       .  A
O204        C209   1.274       .  A
O205        C208   1.266       .  A
O206        C218   1.270       .  A
O207        C220   1.274       .  A
C208        O213   1.268       .  A
C208        C693   1.499       .  S
C209       C1250   1.480       .  S
O211        C214   1.267       .  A
O212        C214   1.270       .  A
C214        C621   1.485       .  S
O215        C220   1.273       .  A
O216        C218   1.271       .  A
C217        O219   1.277       .  A
C217        C650   1.481       .  S
C218        C674   1.497       .  S
C220        C741   1.500       .  S
Fe221       O237   2.072       .  S
Fe221       O227   2.057       .  S
Fe221       O234   2.059       .  S
Fe221       O226   2.069       .  S
Fe221       O232   1.964       .  S
Fe222       O225   2.093       .  S
Fe222       O229   2.064       .  S
Fe222       O233   2.097       .  S
Fe222       O238   2.031       .  S
Fe222       O232   1.964       .  S
Fe223       O241   2.052       .  S
Fe223       O228   2.089       .  S
Fe223       O235   2.093       .  S
Fe223       O224   2.061       .  S
Fe223       O232   1.968       .  S
O224        C231   1.265       .  A
O225        C239   1.275       .  A
O226        C231   1.266       .  A
O227        C230   1.273       .  A
O228        C240   1.275       .  A
O229        C242   1.267       .  A
C230        O235   1.279       .  A
C230       C1125   1.488       .  S
C231        C602   1.490       .  S
O233        C236   1.276       .  A
O234        C236   1.272       .  A
C236        C549   1.503       .  S
O237        C242   1.267       .  A
O238        C240   1.266       .  A
C239        O241   1.266       .  A
C239        C573   1.497       .  S
C240        C525   1.485       .  S
C242        C722   1.497       .  S
Fe243       O259   2.079       .  S
Fe243       O249   2.050       .  S
Fe243       O256   2.061       .  S
Fe243       O248   2.069       .  S
Fe243       O254   1.944       .  S
Fe244       O247   2.094       .  S
Fe244       O251   2.060       .  S
Fe244       O255   2.096       .  S
Fe244       O260   2.026       .  S
Fe244       O254   1.948       .  S
Fe245       O263   2.061       .  S
Fe245       O250   2.088       .  S
Fe245       O257   2.083       .  S
Fe245       O246   2.072       .  S
Fe245       O254   1.956       .  S
O246        C253   1.270       .  A
O247        C261   1.274       .  A
O248        C253   1.268       .  A
O249        C252   1.272       .  A
O250        C262   1.275       .  A
O251        C264   1.269       .  A
C252        O257   1.276       .  A
C252       C1029   1.482       .  S
C253        C458   1.500       .  S
O255        C258   1.275       .  A
O256        C258   1.269       .  A
C258        C554   1.499       .  S
O259        C264   1.272       .  A
O260        C262   1.266       .  A
C261        O263   1.269       .  A
C261        C482   1.501       .  S
C262        C501   1.476       .  S
C264        C626   1.485       .  S
Fe265       O281   2.060       .  S
Fe265       O271   2.070       .  S
Fe265       O278   2.070       .  S
Fe265       O270   2.056       .  S
Fe265       O276   1.948       .  S
Fe266       O269   2.041       .  S
Fe266       O273   2.080       .  S
Fe266       O277   2.064       .  S
Fe266       O282   2.077       .  S
Fe266       O276   1.955       .  S
Fe267       O285   2.072       .  S
Fe267       O272   2.059       .  S
Fe267       O279   2.076       .  S
Fe267       O268   2.081       .  S
Fe267       O276   1.953       .  S
O268        C275   1.276       .  A
O269        C283   1.267       .  A
O270        C275   1.274       .  A
O271        C274   1.266       .  A
O272        C284   1.270       .  A
O273        C286   1.273       .  A
C274        O279   1.268       .  A
C274        C578   1.498       .  S
C275        C962   1.477       .  S
O277        C280   1.267       .  A
O278        C280   1.269       .  A
C280        C405   1.491       .  S
O281        C286   1.273       .  A
O282        C284   1.271       .  A
C283        O285   1.273       .  A
C283        C506   1.469       .  S
C284        C597   1.492       .  S
C286        C429   1.488       .  S
Fe287       O303   2.059       .  S
Fe287       O293   2.075       .  S
Fe287       O300   2.084       .  S
Fe287       O292   2.057       .  S
Fe287       O298   1.958       .  S
Fe288       O291   2.039       .  S
Fe288       O295   2.074       .  S
Fe288       O299   2.056       .  S
Fe288       O304   2.073       .  S
Fe288       O298   1.959       .  S
Fe289       O307   2.086       .  S
Fe289       O294   2.068       .  S
Fe289       O301   2.077       .  S
Fe289       O290   2.083       .  S
Fe289       O298   1.959       .  S
O290        C297   1.275       .  A
O291        C305   1.267       .  A
O292        C297   1.272       .  A
O293        C296   1.270       .  A
O294        C306   1.270       .  A
O295        C308   1.270       .  A
C296        O301   1.270       .  A
C296        C477   1.503       .  S
C297        C914   1.484       .  S
O299        C302   1.267       .  A
O300        C302   1.273       .  A
C302        C381   1.488       .  S
O303        C308   1.269       .  A
O304        C306   1.270       .  A
C305        O307   1.274       .  A
C305        C530   1.480       .  S
C306        C453   1.487       .  S
C308        C434   1.489       .  S
Fe309       O325   2.076       .  S
Fe309       O315   2.054       .  S
Fe309       O322   2.057       .  S
Fe309       O314   2.063       .  S
Fe309       O320   1.966       .  S
Fe310       O313   2.074       .  S
Fe310       O317   2.050       .  S
Fe310       O321   2.083       .  S
Fe310       O326   2.033       .  S
Fe310       O320   1.967       .  S
Fe311       O329   2.064       .  S
Fe311       O316   2.086       .  S
Fe311       O323   2.087       .  S
Fe311       O312   2.070       .  S
Fe311       O320   1.972       .  S
O312        C319   1.268       .  A
O313        C327   1.272       .  A
O314        C319   1.268       .  A
O315        C318   1.272       .  A
O316        C328   1.273       .  A
O317        C330   1.265       .  A
C318        O323   1.274       .  A
C318        C866   1.497       .  S
C319        C813   1.492       .  S
O321        C324   1.273       .  A
O322        C324   1.270       .  A
C324        C357   1.490       .  S
O325        C330   1.269       .  A
O326        C328   1.265       .  A
C327        O329   1.270       .  A
C327        C794   1.486       .  S
C328        C645   1.478       .  S
C330        C410   1.484       .  S
Fe331       O347   2.076       .  S
Fe331       O337   2.055       .  S
Fe331       O344   2.060       .  S
Fe331       O336   2.071       .  S
Fe331       O342   1.944       .  S
Fe332       O335   2.085       .  S
Fe332       O339   2.062       .  S
Fe332       O343   2.090       .  S
Fe332       O348   2.043       .  S
Fe332       O342   1.951       .  S
Fe333       O351   2.074       .  S
Fe333       O338   2.089       .  S
Fe333       O345   2.092       .  S
Fe333       O334   2.091       .  S
Fe333       O342   1.955       .  S
O334        C341   1.274       .  A
O335        C349   1.274       .  A
O336        C341   1.268       .  A
O337        C340   1.272       .  A
O338        C350   1.274       .  A
O339        C352   1.267       .  A
C340        O345   1.277       .  A
C340        C837   1.479       .  S
C341        C669   1.504       .  S
O343        C346   1.274       .  A
O344        C346   1.270       .  A
C346        C362   1.485       .  S
O347        C352   1.270       .  A
O348        C350   1.266       .  A
C349        O351   1.273       .  A
C349        C698   1.494       .  S
C350        C770   1.468       .  S
C352        C386   1.485       .  S
C353        C354   1.408       .  A
C353        C358   1.398       .  A
C353        C367   1.445       .  S
C354        C359   1.483   1_554  S
C354        C355   1.402       .  A
C355        C356   1.405       .  A
C355        H374   1.085   1_554  S
C356        C357   1.418       .  A
C356        C368   1.444       .  S
C357        C358   1.408       .  A
C358        H373   1.085       .  S
C359        C360   1.400       .  A
C359        C364   1.408       .  A
C360        C361   1.399       .  A
C360        H375   1.085       .  S
C361        C362   1.415       .  A
C361        C365   1.444       .  S
C362        C363   1.408       .  A
C363        C364   1.404       .  A
C363        H376   1.085       .  S
C364        C366   1.443       .  S
C365        N369   1.157       .  T
C366        N370   1.157       .  T
C367        N372   1.157       .  T
C368        N371   1.157       .  T
C377        C378   1.410       .  A
C377        C382   1.400       .  A
C377        C391   1.444       .  S
C378        C383   1.487       .  S
C378        C379   1.402       .  A
C379        C380   1.403       .  A
C379        H398   1.085       .  S
C380        C381   1.418       .  A
C380        C392   1.444       .  S
C381        C382   1.406       .  A
C382        H397   1.085       .  S
C383        C384   1.405       .  A
C383        C388   1.410       .  A
C384        C385   1.406       .  A
C384        H399   1.084       .  S
C385        C386   1.415       .  A
C385        C389   1.443       .  S
C386        C387   1.405       .  A
C387        C388   1.396       .  A
C387        H400   1.085       .  S
C388        C390   1.445       .  S
C389        N393   1.157       .  T
C390        N394   1.157       .  T
C391        N396   1.157       .  T
C392        N395   1.157       .  T
C401        C402   1.411       .  A
C401        C406   1.396       .  A
C401        C415   1.445       .  S
C402        C407   1.492       .  S
C402        C403   1.406       .  A
C403        C404   1.405       .  A
C403        H422   1.085       .  S
C404        C405   1.416       .  A
C404        C416   1.444       .  S
C405        C406   1.408       .  A
C406        H421   1.084       .  S
C407        C408   1.406       .  A
C407        C412   1.412       .  A
C408        C409   1.403       .  A
C408        H423   1.085       .  S
C409        C410   1.414       .  A
C409        C413   1.444       .  S
C410        C411   1.405       .  A
C411        C412   1.398       .  A
C411        H424   1.085       .  S
C412        C414   1.445       .  S
C413        N417   1.157       .  T
C414        N418   1.157       .  T
C415        N420   1.157       .  T
C416        N419   1.157       .  T
C425        C426   1.408       .  A
C425        C430   1.399       .  A
C425        C439   1.444       .  S
C426        C431   1.480   1_554  S
C426        C427   1.399       .  A
C427        C428   1.401       .  A
C427        H446   1.085       .  S
C428        C429   1.420       .  A
C428        C440   1.444       .  S
C429        C430   1.408       .  A
C430        H445   1.085       .  S
C431        C432   1.399       .  A
C431        C436   1.407       .  A
C432        C433   1.401       .  A
C432        H447   1.085       .  S
C433        C434   1.419       .  A
C433        C437   1.444       .  S
C434        C435   1.408       .  A
C435        C436   1.399       .  A
C435        H448   1.085       .  S
C436        C438   1.444       .  S
C437        N441   1.157       .  T
C438        N442   1.157       .  T
C439        N444   1.157       .  T
C440        N443   1.157       .  T
C449        C450   1.412       .  A
C449        C454   1.404       .  A
C449        C463   1.443       .  S
C450        C455   1.491       .  S
C450        C451   1.401       .  A
C451        C452   1.401       .  A
C451        H470   1.085       .  S
C452        C453   1.419       .  A
C452        C464   1.445       .  S
C453        C454   1.405       .  A
C454        H469   1.084       .  S
C455        C456   1.400       .  A
C455        C460   1.410       .  A
C456        C457   1.400       .  A
C456        H471   1.085       .  S
C457        C458   1.423   1_565  A
C457        C461   1.445       .  S
C458        C459   1.411       .  A
C459        C460   1.405   1_545  A
C459        H472   1.084       .  S
C460        C462   1.443       .  S
C461        N465   1.157       .  T
C462        N466   1.157       .  T
C463        N468   1.157       .  T
C464        N467   1.157       .  T
C473        C474   1.411       .  A
C473        C478   1.402       .  A
C473        C487   1.445       .  S
C474        C479   1.496       .  S
C474        C475   1.404       .  A
C475        C476   1.408       .  A
C475        H494   1.084       .  S
C476        C477   1.420       .  A
C476        C488   1.443       .  S
C477        C478   1.410       .  A
C478        H493   1.084       .  S
C479        C480   1.402       .  A
C479        C484   1.411       .  A
C480        C481   1.406       .  A
C480        H495   1.085       .  S
C481        C482   1.421       .  A
C481        C485   1.444       .  S
C482        C483   1.410       .  A
C483        C484   1.404       .  A
C483        H496   1.083       .  S
C484        C486   1.444       .  S
C485        N489   1.157       .  T
C486        N490   1.157       .  T
C487        N492   1.157       .  T
C488        N491   1.157       .  T
C497        C498   1.405       .  A
C497        C502   1.387       .  A
C497        C511   1.446       .  S
C498        C503   1.475   1_556  S
C498        C499   1.406       .  A
C499        C500   1.402       .  A
C499        H518   1.084       .  S
C500        C501   1.413       .  A
C500        C512   1.444       .  S
C501        C502   1.407       .  A
C502        H517   1.085       .  S
C503        C504   1.401       .  A
C503        C508   1.408       .  A
C504        C505   1.393       .  A
C504        H519   1.085       .  S
C505        C506   1.413       .  A
C505        C509   1.446       .  S
C506        C507   1.406       .  A
C507        C508   1.398       .  A
C507        H520   1.085       .  S
C508        C510   1.444   1_554  S
C509        N513   1.157       .  T
C510        N514   1.157       .  T
C511        N516   1.157   1_556  T
C512        N515   1.157       .  T
C521        C522   1.404       .  A
C521        C526   1.391       .  A
C521        C535   1.445   1_554  S
C522        C527   1.480   1_554  S
C522        C523   1.406       .  A
C523        C524   1.405       .  A
C523        H542   1.085       .  S
C524        C525   1.414       .  A
C524        C536   1.443       .  S
C525        C526   1.410       .  A
C526        H541   1.085       .  S
C527        C528   1.402       .  A
C527        C532   1.407       .  A
C528        C529   1.399       .  A
C528        H543   1.085       .  S
C529        C530   1.416       .  A
C529        C533   1.445       .  S
C530        C531   1.407       .  A
C531        C532   1.397       .  A
C531        H544   1.085       .  S
C532        C534   1.444   1_556  S
C533        N537   1.157       .  T
C534        N538   1.157       .  T
C535        N540   1.157       .  T
C536        N539   1.157       .  T
C545        C546   1.412   1_545  A
C545        C550   1.402   1_545  A
C545        C559   1.444       .  S
C546        C551   1.497   1_564  S
C546        C547   1.404       .  A
C547        C548   1.405       .  A
C547        H566   1.088   1_554  S
C548        C549   1.420       .  A
C548        C560   1.444       .  S
C549        C550   1.410       .  A
C550        H565   1.088   1_565  S
C551        C552   1.403   1_545  A
C551        C556   1.412       .  A
C552        C553   1.402   1_565  A
C552        H567   1.085       .  S
C553        C554   1.420       .  A
C553        C557   1.445   1_545  S
C554        C555   1.410       .  A
C555        C556   1.407       .  A
C555        H568   1.084       .  S
C556        C558   1.444       .  S
C557        N561   1.157       .  T
C558        N562   1.157   1_556  T
C559        N564   1.157       .  T
C560        N563   1.157       .  T
C569        C570   1.413       .  A
C569        C574   1.406       .  A
C569        C583   1.443       .  S
C570        C575   1.497       .  S
C570        C571   1.404       .  A
C571        C572   1.404       .  A
C571        H590   1.085       .  S
C572        C573   1.419       .  A
C572        C584   1.445       .  S
C573        C574   1.408       .  A
C574        H589   1.085       .  S
C575        C576   1.403       .  A
C575        C580   1.412       .  A
C576        C577   1.402       .  A
C576        H591   1.085       .  S
C577        C578   1.420       .  A
C577        C581   1.445       .  S
C578        C579   1.409       .  A
C579        C580   1.407       .  A
C579        H592   1.084       .  S
C580        C582   1.443       .  S
C581        N585   1.158       .  T
C582        N586   1.157       .  T
C583        N588   1.157       .  T
C584        N587   1.158       .  T
C593        C594   1.408       .  A
C593        C598   1.400       .  A
C593        C607   1.444       .  S
C594        C599   1.484       .  S
C594        C595   1.400       .  A
C595        C596   1.403       .  A
C595        H614   1.085       .  S
C596        C597   1.421       .  A
C596        C608   1.445       .  S
C597        C598   1.408       .  A
C598        H613   1.084       .  S
C599        C600   1.401       .  A
C599        C604   1.407       .  A
C600        C601   1.401       .  A
C600        H615   1.085       .  S
C601        C602   1.417   1_545  A
C601        C605   1.444       .  S
C602        C603   1.409       .  A
C603        C604   1.403   1_565  A
C603        H616   1.084       .  S
C604        C606   1.443       .  S
C605        N609   1.157       .  T
C606        N610   1.157       .  T
C607        N612   1.157       .  T
C608        N611   1.157       .  T
C617        C618   1.411       .  A
C617        C622   1.397       .  A
C617        C631   1.445       .  S
C618        C623   1.487   1_655  S
C618        C619   1.404       .  A
C619        C620   1.405       .  A
C619        H638   1.084       .  S
C620        C621   1.415       .  A
C620        C632   1.443       .  S
C621        C622   1.405       .  A
C622        H637   1.085       .  S
C623        C624   1.402       .  A
C623        C628   1.411       .  A
C624        C625   1.400       .  A
C624        H639   1.085       .  S
C625        C626   1.415       .  A
C625        C629   1.445       .  S
C626        C627   1.406       .  A
C627        C628   1.402       .  A
C627        H640   1.085       .  S
C628        C630   1.444       .  S
C629        N633   1.157       .  T
C630        N634   1.157       .  T
C631        N636   1.157   1_655  T
C632        N635   1.157       .  T
C641        C642   1.405       .  A
C641        C646   1.393       .  A
C641        C655   1.445   1_554  S
C642        C647   1.479   1_554  S
C642        C643   1.406       .  A
C643        C644   1.404       .  A
C643        H662   1.084       .  S
C644        C645   1.411       .  A
C644        C656   1.443       .  S
C645        C646   1.407       .  A
C646        H661   1.085       .  S
C647        C648   1.403       .  A
C647        C652   1.406       .  A
C648        C649   1.400       .  A
C648        H663   1.085       .  S
C649        C650   1.415       .  A
C649        C653   1.444       .  S
C650        C651   1.409       .  A
C651        C652   1.396       .  A
C651        H664   1.085       .  S
C652        C654   1.444   1_556  S
C653        N657   1.157       .  T
C654        N658   1.157       .  T
C655        N660   1.157       .  T
C656        N659   1.157       .  T
C665        C666   1.411       .  A
C665        C670   1.410       .  A
C665        C679   1.443       .  S
C666        C671   1.494       .  S
C666        C667   1.400       .  A
C667        C668   1.402       .  A
C667        H686   1.085       .  S
C668        C669   1.424       .  A
C668        C680   1.445       .  S
C669        C670   1.410       .  A
C670        H685   1.084       .  S
C671        C672   1.401       .  A
C671        C676   1.412       .  A
C672        C673   1.404       .  A
C672        H687   1.085       .  S
C673        C674   1.420       .  A
C673        C677   1.444       .  S
C674        C675   1.408       .  A
C675        C676   1.406       .  A
C675        H688   1.084       .  S
C676        C678   1.443       .  S
C677        N681   1.157       .  T
C678        N682   1.157       .  T
C679        N684   1.157       .  T
C680        N683   1.157       .  T
C689        C690   1.410       .  A
C689        C694   1.407   1_565  A
C689        C703   1.443       .  S
C690        C695   1.490       .  S
C690        C691   1.399       .  A
C691        C692   1.400       .  A
C691        H710   1.085       .  S
C692        C693   1.421   1_565  A
C692        C704   1.444       .  S
C693        C694   1.411       .  A
C694        H709   1.084       .  S
C695        C696   1.404       .  A
C695        C700   1.409       .  A
C696        C697   1.406       .  A
C696        H711   1.084       .  S
C697        C698   1.415       .  A
C697        C701   1.444       .  S
C698        C699   1.410       .  A
C699        C700   1.403       .  A
C699        H712   1.084       .  S
C700        C702   1.444       .  S
C701        N705   1.157       .  T
C702        N706   1.157       .  T
C703        N708   1.157       .  T
C704        N707   1.157       .  T
C713        C714   1.415       .  A
C713        C718   1.401       .  A
C713        C727   1.444       .  S
C714        C719   1.495   1_655  S
C714        C715   1.406       .  A
C715        C716   1.402       .  A
C715        H734   1.085       .  S
C716        C717   1.412       .  A
C716        C728   1.444       .  S
C717        C718   1.404       .  A
C718        H733   1.085       .  S
C719        C720   1.402       .  A
C719        C724   1.412       .  A
C720        C721   1.399       .  A
C720        H735   1.085       .  S
C721        C722   1.420       .  A
C721        C725   1.445       .  S
C722        C723   1.410       .  A
C723        C724   1.406       .  A
C723        H736   1.084       .  S
C724        C726   1.444       .  S
C725        N729   1.157       .  T
C726        N730   1.157       .  T
C727        N732   1.157       .  T
C728        N731   1.157       .  T
C737        C738   1.408   1_565  A
C737        C742   1.403   1_565  A
C737        C751   1.444       .  S
C738        C743   1.486   1_546  S
C738        C739   1.399       .  A
C739        C740   1.403       .  A
C739        H758   1.085       .  S
C740        C741   1.423       .  A
C740        C752   1.444       .  S
C741        C742   1.411       .  A
C742        H757   1.084   1_545  S
C743        C744   1.402       .  A
C743        C748   1.409   1_565  A
C744        C745   1.404       .  A
C744        H759   1.085       .  S
C745        C746   1.418       .  A
C745        C749   1.444       .  S
C746        C747   1.407       .  A
C747        C748   1.401   1_565  A
C747        H760   1.085       .  S
C748        C750   1.444       .  S
C749        N753   1.157       .  T
C750        N754   1.157       .  T
C751        N756   1.157       .  T
C752        N755   1.157       .  T
C761        C762   1.408       .  A
C761        C766   1.394   1_556  A
C761        C775   1.445       .  S
C762        C767   1.485       .  S
C762        C763   1.405   1_556  A
C763        C764   1.402       .  A
C763        H782   1.085       .  S
C764        C765   1.416       .  A
C764        C776   1.444       .  S
C765        C766   1.410       .  A
C766        H781   1.085       .  S
C767        C768   1.406       .  A
C767        C772   1.412       .  A
C768        C769   1.400       .  A
C768        H783   1.085       .  S
C769        C770   1.408       .  A
C769        C773   1.444       .  S
C770        C771   1.403       .  A
C771        C772   1.398       .  A
C771        H784   1.086       .  S
C772        C774   1.445       .  S
C773        N777   1.157       .  T
C774        N778   1.157       .  T
C775        N780   1.157       .  T
C776        N779   1.157       .  T
C785        C786   1.410       .  A
C785        C790   1.404   1_545  A
C785        C799   1.444       .  S
C786        C791   1.492       .  S
C786        C787   1.402       .  A
C787        C788   1.401       .  A
C787        H806   1.085       .  S
C788        C789   1.420   1_545  A
C788        C800   1.444       .  S
C789        C790   1.411       .  A
C790        H805   1.084       .  S
C791        C792   1.406       .  A
C791        C796   1.412       .  A
C792        C793   1.403       .  A
C792        H807   1.085       .  S
C793        C794   1.413       .  A
C793        C797   1.444       .  S
C794        C795   1.407       .  A
C795        C796   1.401       .  A
C795        H808   1.085       .  S
C796        C798   1.444       .  S
C797        N801   1.157       .  T
C798        N802   1.157       .  T
C799        N804   1.157       .  T
C800        N803   1.157       .  T
C809        C810   1.407       .  A
C809        C814   1.398       .  A
C809        C823   1.444       .  S
C810        C815   1.483       .  S
C810        C811   1.401       .  A
C811        C812   1.405       .  A
C811        H830   1.085       .  S
C812        C813   1.418       .  A
C812        C824   1.443       .  S
C813        C814   1.409       .  A
C814        H829   1.085       .  S
C815        C816   1.402       .  A
C815        C820   1.407       .  A
C816        C817   1.402       .  A
C816        H831   1.085       .  S
C817        C818   1.416       .  A
C817        C821   1.444       .  S
C818        C819   1.408       .  A
C819        C820   1.402       .  A
C819        H832   1.085       .  S
C820        C822   1.444       .  S
C821        N825   1.157       .  T
C822        N826   1.157       .  T
C823        N828   1.157       .  T
C824        N827   1.157       .  T
C833        C834   1.410       .  A
C833        C838   1.401       .  A
C833        C847   1.444       .  S
C834        C839   1.484       .  S
C834        C835   1.403       .  A
C835        C836   1.401       .  A
C835        H854   1.085       .  S
C836        C837   1.413       .  A
C836        C848   1.444       .  S
C837        C838   1.405       .  A
C838        H853   1.085       .  S
C839        C840   1.402       .  A
C839        C844   1.409       .  A
C840        C841   1.402       .  A
C840        H855   1.085       .  S
C841        C842   1.418       .  A
C841        C845   1.445       .  S
C842        C843   1.406       .  A
C843        C844   1.400       .  A
C843        H856   1.084       .  S
C844        C846   1.443       .  S
C845        N849   1.158       .  T
C846        N850   1.157       .  T
C847        N852   1.157       .  T
C848        N851   1.157       .  T
C857        C858   1.413       .  A
C857        C862   1.403       .  A
C857        C871   1.444       .  S
C858        C863   1.492       .  S
C858        C859   1.405       .  A
C859        C860   1.399       .  A
C859        H878   1.085       .  S
C860        C861   1.411       .  A
C860        C872   1.444       .  S
C861        C862   1.405       .  A
C862        H877   1.085       .  S
C863        C864   1.404       .  A
C863        C868   1.410       .  A
C864        C865   1.404       .  A
C864        H879   1.085       .  S
C865        C866   1.421       .  A
C865        C869   1.444       .  S
C866        C867   1.409       .  A
C867        C868   1.398       .  A
C867        H880   1.084       .  S
C868        C870   1.445       .  S
C869        N873   1.158       .  T
C870        N874   1.157       .  T
C871        N876   1.157       .  T
C872        N875   1.157       .  T
C881        C882   1.410       .  A
C881        C886   1.404       .  A
C881        C895   1.443       .  S
C882        C887   1.484       .  S
C882        C883   1.402       .  A
C883        C884   1.397       .  A
C883        H902   1.085       .  S
C884        C885   1.411       .  A
C884        C896   1.445       .  S
C885        C886   1.405       .  A
C886        H901   1.084       .  S
C887        C888   1.402       .  A
C887        C892   1.408       .  A
C888        C889   1.404       .  A
C888        H903   1.085       .  S
C889        C890   1.418       .  A
C889        C893   1.444       .  S
C890        C891   1.408       .  A
C891        C892   1.399       .  A
C891        H904   1.085       .  S
C892        C894   1.444       .  S
C893        N897   1.157       .  T
C894        N898   1.157       .  T
C895        N900   1.157       .  T
C896        N899   1.157       .  T
C905        C906   1.410       .  A
C905        C910   1.399       .  A
C905        C919   1.444       .  S
C906        C911   1.485       .  S
C906        C907   1.403       .  A
C907        C908   1.402       .  A
C907        H926   1.085       .  S
C908        C909   1.415       .  A
C908        C920   1.444       .  S
C909        C910   1.407       .  A
C910        H925   1.085       .  S
C911        C912   1.402       .  A
C911        C916   1.410       .  A
C912        C913   1.400       .  A
C912        H927   1.085       .  S
C913        C914   1.415       .  A
C913        C917   1.444       .  S
C914        C915   1.407       .  A
C915        C916   1.400       .  A
C915        H928   1.085       .  S
C916        C918   1.444       .  S
C917        N921   1.157       .  T
C918        N922   1.157       .  T
C919        N924   1.157       .  T
C920        N923   1.157       .  T
C929        C930   1.408       .  A
C929        C934   1.394       .  A
C929        C943   1.445       .  S
C930        C935   1.481       .  S
C930        C931   1.404       .  A
C931        C932   1.405       .  A
C931        H950   1.084       .  S
C932        C933   1.414       .  A
C932        C944   1.444       .  S
C933        C934   1.406       .  A
C934        H949   1.085       .  S
C935        C936   1.400       .  A
C935        C940   1.410       .  A
C936        C937   1.399       .  A
C936        H951   1.085       .  S
C937        C938   1.416       .  A
C937        C941   1.445       .  S
C938        C939   1.405       .  A
C939        C940   1.402       .  A
C939        H952   1.084       .  S
C940        C942   1.443       .  S
C941        N945   1.157       .  T
C942        N946   1.157       .  T
C943        N948   1.157       .  T
C944        N947   1.157       .  T
C953        C954   1.410       .  A
C953        C958   1.395       .  A
C953        C967   1.445       .  S
C954        C959   1.485       .  S
C954        C955   1.403       .  A
C955        C956   1.403       .  A
C955        H974   1.085       .  S
C956        C957   1.418       .  A
C956        C968   1.444       .  S
C957        C958   1.406       .  A
C958        H973   1.084       .  S
C959        C960   1.404       .  A
C959        C964   1.411       .  A
C960        C961   1.398       .  A
C960        H975   1.085       .  S
C961        C962   1.412       .  A
C961        C965   1.445       .  S
C962        C963   1.404       .  A
C963        C964   1.399       .  A
C963        H976   1.085       .  S
C964        C966   1.444       .  S
C965        N969   1.157       .  T
C966        N970   1.157       .  T
C967        N972   1.157       .  T
C968        N971   1.158       .  T
C977        C978   1.411       .  A
C977        C982   1.396       .  A
C977        C991   1.445       .  S
C978        C983   1.490       .  S
C978        C979   1.405       .  A
C979        C980   1.405       .  A
C979        H998   1.085       .  S
C980        C981   1.416       .  A
C980        C992   1.444       .  S
C981        C982   1.406       .  A
C982        H997   1.085       .  S
C983        C984   1.402       .  A
C983        C988   1.412       .  A
C984        C985   1.401       .  A
C984        H999   1.085       .  S
C985        C986   1.418       .  A
C985        C989   1.445       .  S
C986        C987   1.406       .  A
C987        C988   1.402       .  A
C987       H1000   1.085       .  S
C988        C990   1.444       .  S
C989        N993   1.157       .  T
C990        N994   1.157       .  T
C991        N996   1.157       .  T
C992        N995   1.157       .  T
C1001      C1002   1.405       .  A
C1001      C1006   1.401       .  A
C1001      C1015   1.443       .  S
C1002      C1007   1.478       .  S
C1002      C1003   1.399       .  A
C1003      C1004   1.399       .  A
C1003      H1022   1.085       .  S
C1004      C1005   1.419       .  A
C1004      C1016   1.444       .  S
C1005      C1006   1.410       .  A
C1006      H1021   1.084       .  S
C1007      C1008   1.400       .  A
C1007      C1012   1.409       .  A
C1008      C1009   1.402       .  A
C1008      H1023   1.085       .  S
C1009      C1010   1.415       .  A
C1009      C1013   1.444       .  S
C1010      C1011   1.405       .  A
C1011      C1012   1.398       .  A
C1011      H1024   1.085       .  S
C1012      C1014   1.445       .  S
C1013      N1017   1.157       .  T
C1014      N1018   1.157       .  T
C1015      N1020   1.157       .  T
C1016      N1019   1.157       .  T
C1025      C1026   1.409       .  A
C1025      C1030   1.397       .  A
C1025      C1039   1.445       .  S
C1026      C1031   1.481       .  S
C1026      C1027   1.402       .  A
C1027      C1028   1.399       .  A
C1027      H1046   1.085       .  S
C1028      C1029   1.416       .  A
C1028      C1040   1.444       .  S
C1029      C1030   1.406       .  A
C1030      H1045   1.084       .  S
C1031      C1032   1.402       .  A
C1031      C1036   1.410       .  A
C1032      C1033   1.397       .  A
C1032      H1047   1.085       .  S
C1033      C1034   1.414       .  A
C1033      C1037   1.445       .  S
C1034      C1035   1.405       .  A
C1035      C1036   1.399       .  A
C1035      H1048   1.085       .  S
C1036      C1038   1.444       .  S
C1037      N1041   1.157       .  T
C1038      N1042   1.157       .  T
C1039      N1044   1.157       .  T
C1040      N1043   1.157       .  T
C1049      C1050   1.409       .  A
C1049      C1054   1.403       .  A
C1049      C1063   1.444       .  S
C1050      C1055   1.491       .  S
C1050      C1051   1.404       .  A
C1051      C1052   1.404       .  A
C1051      H1070   1.085       .  S
C1052      C1053   1.417       .  A
C1052      C1064   1.444       .  S
C1053      C1054   1.410       .  A
C1054      H1069   1.085       .  S
C1055      C1056   1.400       .  A
C1055      C1060   1.411       .  A
C1056      C1057   1.400       .  A
C1056      H1071   1.085       .  S
C1057      C1058   1.421   1_565  A
C1057      C1061   1.445       .  S
C1058      C1059   1.410       .  A
C1059      C1060   1.408   1_545  A
C1059      H1072   1.084       .  S
C1060      C1062   1.443       .  S
C1061      N1065   1.157       .  T
C1062      N1066   1.157       .  T
C1063      N1068   1.157       .  T
C1064      N1067   1.157       .  T
C1073      C1074   1.409       .  A
C1073      C1078   1.401       .  A
C1073      C1087   1.444       .  S
C1074      C1079   1.484       .  S
C1074      C1075   1.399       .  A
C1075      C1076   1.402       .  A
C1075      H1094   1.085       .  S
C1076      C1077   1.422       .  A
C1076      C1088   1.444       .  S
C1077      C1078   1.409       .  A
C1078      H1093   1.084       .  S
C1079      C1080   1.400       .  A
C1079      C1084   1.410       .  A
C1080      C1081   1.397       .  A
C1080      H1095   1.085       .  S
C1081      C1082   1.417       .  A
C1081      C1085   1.445       .  S
C1082      C1083   1.407       .  A
C1083      C1084   1.406       .  A
C1083      H1096   1.084       .  S
C1084      C1086   1.443       .  S
C1085      N1089   1.157       .  T
C1086      N1090   1.157       .  T
C1087      N1092   1.157       .  T
C1088      N1091   1.157       .  T
C1097      C1098   1.404       .  A
C1097      C1102   1.390       .  A
C1097      C1111   1.445       .  S
C1098      C1103   1.475       .  S
C1098      C1099   1.405       .  A
C1099      C1100   1.404       .  A
C1099      H1118   1.085       .  S
C1100      C1101   1.412       .  A
C1100      C1112   1.443       .  S
C1101      C1102   1.408       .  A
C1102      H1117   1.085       .  S
C1103      C1104   1.401       .  A
C1103      C1108   1.408       .  A
C1104      C1105   1.397       .  A
C1104      H1119   1.085       .  S
C1105      C1106   1.412       .  A
C1105      C1109   1.445       .  S
C1106      C1107   1.405       .  A
C1107      C1108   1.398       .  A
C1107      H1120   1.085       .  S
C1108      C1110   1.444       .  S
C1109      N1113   1.157       .  T
C1110      N1114   1.157       .  T
C1111      N1116   1.157       .  T
C1112      N1115   1.157       .  T
C1121      C1122   1.409       .  A
C1121      C1126   1.403       .  A
C1121      C1135   1.444       .  S
C1122      C1127   1.485       .  S
C1122      C1123   1.401       .  A
C1123      C1124   1.400       .  A
C1123      H1142   1.085       .  S
C1124      C1125   1.418       .  A
C1124      C1136   1.445       .  S
C1125      C1126   1.408       .  A
C1126      H1141   1.084       .  S
C1127      C1128   1.401       .  A
C1127      C1132   1.411       .  A
C1128      C1129   1.399       .  A
C1128      H1143   1.085       .  S
C1129      C1130   1.414       .  A
C1129      C1133   1.445       .  S
C1130      C1131   1.405       .  A
C1131      C1132   1.403       .  A
C1131      H1144   1.085       .  S
C1132      C1134   1.443       .  S
C1133      N1137   1.157       .  T
C1134      N1138   1.157       .  T
C1135      N1140   1.157       .  T
C1136      N1139   1.158       .  T
C1145      C1146   1.406       .  A
C1145      C1150   1.396       .  A
C1145      C1159   1.445       .  S
C1146      C1151   1.486       .  S
C1146      C1147   1.405       .  A
C1147      C1148   1.406       .  A
C1147      H1166   1.085       .  S
C1148      C1149   1.416       .  A
C1148      C1160   1.443       .  S
C1149      C1150   1.411       .  A
C1150      H1165   1.084       .  S
C1151      C1152   1.402       .  A
C1151      C1156   1.411       .  A
C1152      C1153   1.401       .  A
C1152      H1167   1.085       .  S
C1153      C1154   1.414       .  A
C1153      C1157   1.445       .  S
C1154      C1155   1.405       .  A
C1155      C1156   1.401       .  A
C1155      H1168   1.085       .  S
C1156      C1158   1.444       .  S
C1157      N1161   1.157       .  T
C1158      N1162   1.157       .  T
C1159      N1164   1.157       .  T
C1160      N1163   1.157       .  T
C1169      C1170   1.408   1_565  A
C1169      C1174   1.400   1_565  A
C1169      C1183   1.444       .  S
C1170      C1175   1.480   1_545  S
C1170      C1171   1.398       .  A
C1171      C1172   1.397       .  A
C1171      H1190   1.085       .  S
C1172      C1173   1.422       .  A
C1172      C1184   1.445       .  S
C1173      C1174   1.410       .  A
C1174      H1189   1.084       .  S
C1175      C1176   1.402       .  A
C1175      C1180   1.409   1_565  A
C1176      C1177   1.402       .  A
C1176      H1191   1.085       .  S
C1177      C1178   1.415       .  A
C1177      C1181   1.444       .  S
C1178      C1179   1.406       .  A
C1179      C1180   1.395   1_565  A
C1179      H1192   1.085       .  S
C1180      C1182   1.445       .  S
C1181      N1185   1.157       .  T
C1182      N1186   1.157       .  T
C1183      N1188   1.157       .  T
C1184      N1187   1.157       .  T
C1193      C1194   1.412       .  A
C1193      C1198   1.407       .  A
C1193      C1207   1.443       .  S
C1194      C1199   1.497       .  S
C1194      C1195   1.402       .  A
C1195      C1196   1.400       .  A
C1195      H1214   1.085       .  S
C1196      C1197   1.423       .  A
C1196      C1208   1.445       .  S
C1197      C1198   1.411       .  A
C1198      H1213   1.084       .  S
C1199      C1200   1.403       .  A
C1199      C1204   1.414       .  A
C1200      C1201   1.403       .  A
C1200      H1215   1.084       .  S
C1201      C1202   1.417       .  A
C1201      C1205   1.445       .  S
C1202      C1203   1.406       .  A
C1203      C1204   1.404       .  A
C1203      H1216   1.085       .  S
C1204      C1206   1.444       .  S
C1205      N1209   1.157       .  T
C1206      N1210   1.157       .  T
C1207      N1212   1.157       .  T
C1208      N1211   1.157       .  T
C1217      C1218   1.410       .  A
C1217      C1222   1.400       .  A
C1217      C1231   1.445       .  S
C1218      C1223   1.488       .  S
C1218      C1219   1.402       .  A
C1219      C1220   1.405   1_545  A
C1219      H1238   1.084       .  S
C1220      C1221   1.419       .  A
C1220      C1232   1.443       .  S
C1221      C1222   1.408   1_565  A
C1222      H1237   1.084       .  S
C1223      C1224   1.400       .  A
C1223      C1228   1.410       .  A
C1224      C1225   1.403       .  A
C1224      H1239   1.085       .  S
C1225      C1226   1.421       .  A
C1225      C1229   1.444       .  S
C1226      C1227   1.407       .  A
C1227      C1228   1.401       .  A
C1227      H1240   1.084       .  S
C1228      C1230   1.444       .  S
C1229      N1233   1.157       .  T
C1230      N1234   1.157       .  T
C1231      N1236   1.157       .  T
C1232      N1235   1.157       .  T
C1241      C1242   1.409       .  A
C1241      C1246   1.397       .  A
C1241      C1255   1.444       .  S
C1242      C1247   1.483       .  S
C1242      C1243   1.404       .  A
C1243      C1244   1.400       .  A
C1243      H1262   1.085       .  S
C1244      C1245   1.414       .  A
C1244      C1256   1.443       .  S
C1245      C1246   1.407       .  A
C1246      H1261   1.085       .  S
C1247      C1248   1.404       .  A
C1247      C1252   1.409       .  A
C1248      C1249   1.400       .  A
C1248      H1263   1.085       .  S
C1249      C1250   1.415       .  A
C1249      C1253   1.445       .  S
C1250      C1251   1.405       .  A
C1251      C1252   1.398       .  A
C1251      H1264   1.085       .  S
C1252      C1254   1.444       .  S
C1253      N1257   1.158       .  T
C1254      N1258   1.157       .  T
C1255      N1260   1.157       .  T
C1256      N1259   1.157       .  T
C1265      C1266   1.413       .  A
C1265      C1270   1.408       .  A
C1265      C1279   1.443       .  S
C1266      C1271   1.492   1_455  S
C1266      C1267   1.401       .  A
C1267      C1268   1.397       .  A
C1267      H1286   1.085       .  S
C1268      C1269   1.418       .  A
C1268      C1280   1.446       .  S
C1269      C1270   1.408       .  A
C1270      H1285   1.084       .  S
C1271      C1272   1.402       .  A
C1271      C1276   1.412       .  A
C1272      C1273   1.403       .  A
C1272      H1287   1.085       .  S
C1273      C1274   1.419       .  A
C1273      C1277   1.444       .  S
C1274      C1275   1.406       .  A
C1275      C1276   1.403       .  A
C1275      H1288   1.085       .  S
C1276      C1278   1.444       .  S
C1277      N1281   1.157       .  T
C1278      N1282   1.157       .  T
C1279      N1284   1.157       .  T
C1280      N1283   1.157       .  T
C1289      C1290   1.406       .  A
C1289      C1294   1.392       .  A
C1289      C1303   1.446       .  S
C1290      C1295   1.482       .  S
C1290      C1291   1.405       .  A
C1291      C1292   1.404       .  A
C1291      H1310   1.085       .  S
C1292      C1293   1.414       .  A
C1292      C1304   1.443       .  S
C1293      C1294   1.411       .  A
C1294      H1309   1.085       .  S
C1295      C1296   1.402       .  A
C1295      C1300   1.410       .  A
C1296      C1297   1.396       .  A
C1296      H1311   1.085       .  S
C1297      C1298   1.413       .  A
C1297      C1301   1.444       .  S
C1298      C1299   1.405       .  A
C1299      C1300   1.399       .  A
C1299      H1312   1.085       .  S
C1300      C1302   1.444       .  S
C1301      N1305   1.157       .  T
C1302      N1306   1.157       .  T
C1303      N1308   1.157       .  T
C1304      N1307   1.157       .  T
C1313      C1314   1.410       .  A
C1313      C1318   1.403       .  A
C1313      C1327   1.444       .  S
C1314      C1319   1.493       .  S
C1314      C1315   1.402       .  A
C1315      C1316   1.406       .  A
C1315      H1334   1.085       .  S
C1316      C1317   1.422       .  A
C1316      C1328   1.444       .  S
C1317      C1318   1.411       .  A
C1318      H1333   1.083       .  S
C1319      C1320   1.402       .  A
C1319      C1324   1.413       .  A
C1320      C1321   1.405       .  A
C1320      H1335   1.085       .  S
C1321      C1322   1.418       .  A
C1321      C1325   1.444       .  S
C1322      C1323   1.407       .  A
C1323      C1324   1.404       .  A
C1323      H1336   1.085       .  S
C1324      C1326   1.444       .  S
C1325      N1329   1.157       .  T
C1326      N1330   1.157       .  T
C1327      N1332   1.157       .  T
C1328      N1331   1.157       .  T
C1337      C1338   1.411       .  A
C1337      C1342   1.404       .  A
C1337      C1351   1.444       .  S
C1338      C1343   1.495       .  S
C1338      C1339   1.404       .  A
C1339      C1340   1.405       .  A
C1339      H1358   1.085       .  S
C1340      C1341   1.418       .  A
C1340      C1352   1.444       .  S
C1341      C1342   1.409       .  A
C1342      H1357   1.084       .  S
C1343      C1344   1.402       .  A
C1343      C1348   1.411       .  A
C1344      C1345   1.406   1_565  A
C1344      H1359   1.085       .  S
C1345      C1346   1.421   1_545  A
C1345      C1349   1.444       .  S
C1346      C1347   1.409       .  A
C1347      C1348   1.404       .  A
C1347      H1360   1.085       .  S
C1348      C1350   1.444       .  S
C1349      N1353   1.157       .  T
C1350      N1354   1.157       .  T
C1351      N1356   1.157       .  T
C1352      N1355   1.157       .  T
C1361      C1362   1.406       .  A
C1361      C1366   1.397       .  A
C1361      C1375   1.444       .  S
C1362      C1367   1.478       .  S
C1362      C1363   1.401       .  A
C1363      C1364   1.400       .  A
C1363      H1382   1.085       .  S
C1364      C1365   1.417       .  A
C1364      C1376   1.444       .  S
C1365      C1366   1.408       .  A
C1366      H1381   1.083       .  S
C1367      C1368   1.401       .  A
C1367      C1372   1.407       .  A
C1368      C1369   1.399       .  A
C1368      H1383   1.085       .  S
C1369      C1370   1.416       .  A
C1369      C1373   1.445       .  S
C1370      C1371   1.406       .  A
C1371      C1372   1.398       .  A
C1371      H1384   1.084       .  S
C1372      C1374   1.444       .  S
C1373      N1377   1.157       .  T
C1374      N1378   1.157       .  T
C1375      N1380   1.157       .  T
C1376      N1379   1.157       .  T
C1385      C1386   1.410       .  A
C1385      C1390   1.399       .  A
C1385      C1399   1.444       .  S
C1386      C1391   1.489   1_655  S
C1386      C1387   1.404       .  A
C1387      C1388   1.403       .  A
C1387      H1406   1.085       .  S
C1388      C1389   1.417       .  A
C1388      C1400   1.444       .  S
C1389      C1390   1.407       .  A
C1390      H1405   1.085       .  S
C1391      C1392   1.404       .  A
C1391      C1396   1.411       .  A
C1392      C1393   1.404       .  A
C1392      H1407   1.085       .  S
C1393      C1394   1.416       .  A
C1393      C1397   1.444       .  S
C1394      C1395   1.407       .  A
C1395      C1396   1.399       .  A
C1395      H1408   1.085       .  S
C1396      C1398   1.445       .  S
C1397      N1401   1.157       .  T
C1398      N1402   1.157   1_455  T
C1399      N1404   1.157       .  T
C1400      N1403   1.157       .  T
C1409      C1410   1.411       .  A
C1409      C1414   1.396       .  A
C1409      C1423   1.445       .  S
C1410      C1415   1.485   1_565  S
C1410      C1411   1.405       .  A
C1411      C1412   1.401       .  A
C1411      H1430   1.084   1_565  S
C1412      C1413   1.411       .  A
C1412      C1424   1.444       .  S
C1413      C1414   1.403       .  A
C1414      H1429   1.084       .  S
C1415      C1416   1.404   1_545  A
C1415      C1420   1.411       .  A
C1416      C1417   1.400   1_565  A
C1416      H1431   1.084       .  S
C1417      C1418   1.413       .  A
C1417      C1421   1.444   1_545  S
C1418      C1419   1.405       .  A
C1419      C1420   1.398       .  A
C1419      H1432   1.085       .  S
C1420      C1422   1.445       .  S
C1421      N1425   1.157       .  T
C1422      N1426   1.157       .  T
C1423      N1428   1.157       .  T
C1424      N1427   1.157       .  T
C1433      C1434   1.409       .  A
C1433      C1438   1.397       .  A
C1433      C1447   1.444       .  S
C1434      C1439   1.484       .  S
C1434      C1435   1.406       .  A
C1435      C1436   1.402       .  A
C1435      H1454   1.085       .  S
C1436      C1437   1.410       .  A
C1436      C1448   1.444       .  S
C1437      C1438   1.405       .  A
C1438      H1453   1.084       .  S
C1439      C1440   1.397       .  A
C1439      C1444   1.415       .  A
C1440      C1441   1.394       .  A
C1440      H1455   1.085       .  S
C1441      C1442   1.418       .  A
C1441      C1445   1.446       .  S
C1442      C1443   1.403       .  A
C1443      C1444   1.405       .  A
C1443      H1456   1.084       .  S
C1444      C1446   1.443       .  S
C1445      N1449   1.157       .  T
C1446      N1450   1.157       .  T
C1447      N1452   1.157       .  T
C1448      N1451   1.157       .  T
C1457      C1458   1.408       .  A
C1457      C1462   1.402       .  A
C1457      C1471   1.444       .  S
C1458      C1463   1.488       .  S
C1458      C1459   1.400       .  A
C1459      C1460   1.405   1_545  A
C1459      H1478   1.085       .  S
C1460      C1461   1.423       .  A
C1460      C1472   1.444       .  S
C1461      C1462   1.410   1_565  A
C1462      H1477   1.084       .  S
C1463      C1464   1.404       .  A
C1463      C1468   1.408       .  A
C1464      C1465   1.404       .  A
C1464      H1479   1.085       .  S
C1465      C1466   1.416       .  A
C1465      C1469   1.444       .  S
C1466      C1467   1.409       .  A
C1467      C1468   1.401       .  A
C1467      H1480   1.085       .  S
C1468      C1470   1.444       .  S
C1469      N1473   1.157       .  T
C1470      N1474   1.157       .  T
C1471      N1476   1.157       .  T
C1472      N1475   1.157       .  T
C1481      C1482   1.411       .  A
C1481      C1486   1.404       .  A
C1481      C1495   1.443       .  S
C1482      C1487   1.491       .  S
C1482      C1483   1.403       .  A
C1483      C1484   1.400       .  A
C1483      H1502   1.085       .  S
C1484      C1485   1.416       .  A
C1484      C1496   1.445       .  S
C1485      C1486   1.408       .  A
C1486      H1501   1.085       .  S
C1487      C1488   1.403       .  A
C1487      C1492   1.411       .  A
C1488      C1489   1.399       .  A
C1488      H1503   1.085       .  S
C1489      C1490   1.415       .  A
C1489      C1493   1.445       .  S
C1490      C1491   1.409       .  A
C1491      C1492   1.406       .  A
C1491      H1504   1.085       .  S
C1492      C1494   1.443       .  S
C1493      N1497   1.157       .  T
C1494      N1498   1.157       .  T
C1495      N1500   1.157       .  T
C1496      N1499   1.157       .  T
