geometry optimzed in LAMMPS
_audit_creation_date              2020-12-01 
_audit_creation_method            'lammps2cif' 
_symmetry_space_group_name_H-M    'P1' 
_symmetry_Int_Tables_number       1 
_symmetry_cell_setting            triclinic 
loop_ 
_symmetry_equiv_pos_as_xyz 
  x,y,z 
_cell_length_a                    45.55818659 
_cell_length_b                    26.695222789578608 
_cell_length_c                    51.20923117333444 
_cell_angle_alpha                 90.11594642851165 
_cell_angle_beta                  89.93113369650706 
_cell_angle_gamma                 90.05597555445628 
loop_ 
_atom_site_label 
_atom_site_type_symbol 
_atom_site_fract_x 
_atom_site_fract_y 
_atom_site_fract_z 
_atom_site_charge 
O1          O  0.61036461  0.30925079  0.93854545    -0.81100
O2          O  0.61064418  0.26019928  0.82209475    -0.65800
O3          O  0.63746971  0.28202195  0.89187609    -1.12400
C4          C  0.63590579  0.45320595  0.86883108     1.05700
O5          O  0.64157668  0.31574661  0.80519544    -0.79000
O6          O  0.67988879  0.35782210  0.83910368    -0.66600
Ni7        Ni  0.61996059  0.24827629  0.92049161     1.34900
C8          C  0.69144307  0.35642684  0.86166059     0.84500
O9          O  0.62584587  0.19757705  0.86101364    -0.79600
O10         O  0.62832778  0.18516197  0.90442833    -0.89900
C11         C  0.62323682  0.28014378  0.80252577     0.84100
O12         O  0.58045979  0.24520319  0.90846054    -0.68100
O13         O  0.64174000  0.43681603  0.84600913    -0.87300
C14         C  0.56778290  0.25473030  0.88701595     0.84900
C15         C  0.62844972  0.16900352  0.88094183     1.06500
H16         H  0.60101612  0.35135734  0.85485354     0.38300
O17         O  0.62133206  0.34116389  0.85578554    -1.10000
O18         O  0.67633294  0.35776641  0.88266850    -0.66700
Ni19       Ni  0.63469710  0.35330161  0.89086839     1.26300
O20         O  0.58182753  0.26698792  0.86647221    -0.66900
O21         O  0.63107301  0.42445588  0.88821558    -0.79200
C22         C  0.62894326  0.34263593  0.94475721     0.84300
O23         O  0.64558628  0.36128084  0.92728611    -0.66400
Ni24       Ni  0.64121163  0.37382161  0.82769508     1.27400
Ni25       Ni  0.62320615  0.26937096  0.85752849     1.26100
H26         H  0.65796733  0.27278251  0.89203613     0.38800
O27         O  0.60461624  0.80988840  0.93650317    -0.81100
O28         O  0.60867885  0.75722334  0.82090812    -0.65800
O29         O  0.63340206  0.78313924  0.89085823    -1.12400
C30         C  0.63207497  0.95300855  0.86834985     1.05700
O31         O  0.63319613  0.82037669  0.80247937    -0.79000
O32         O  0.67399048  0.85200954  0.83778415    -0.66600
Ni33       Ni  0.61606825  0.74899231  0.91943793     1.34900
C34         C  0.68577751  0.85549797  0.86021676     0.84500
O35         O  0.62451408  0.69721425  0.86050820    -0.79600
O36         O  0.62594684  0.68586647  0.90409628    -0.89900
C37         C  0.61883528  0.77964378  0.80094217     0.84100
O38         O  0.57695167  0.74332729  0.90700795    -0.68100
O39         O  0.64066169  0.93604351  0.84642358    -0.87300
C40         C  0.56452234  0.75194292  0.88538355     0.84900
C41         C  0.62699987  0.66925665  0.88071604     1.06500
H42         H  0.59568369  0.84959743  0.85303157     0.38300
O43         O  0.61619343  0.84077365  0.85432169    -1.10000
O44         O  0.67065969  0.86128280  0.88111507    -0.66700
Ni45       Ni  0.62895650  0.85406925  0.88950465     1.26300
O46         O  0.57867331  0.76387662  0.86484997    -0.66900
O47         O  0.62355749  0.92471429  0.88680147    -0.79200
C48         C  0.62228774  0.84434806  0.94307082     0.84300
O49         O  0.63925187  0.86333891  0.92596167    -0.66400
Ni50       Ni  0.63641800  0.87491677  0.82687807     1.27400
Ni51       Ni  0.62010812  0.76883757  0.85645003     1.26100
H52         H  0.65409143  0.77530755  0.89140590     0.38800
O53         O  0.60197593  0.16871377  0.56152880    -0.81100
O54         O  0.60297925  0.22146647  0.67847168    -0.65800
O55         O  0.62785937  0.19923714  0.60800172    -1.12400
C56         C  0.62362778  0.02727776  0.63212665     1.05700
O57         O  0.63439716  0.16552860  0.69377849    -0.79000
O58         O  0.66912951  0.11215600  0.66181174    -0.66600
Ni59       Ni  0.60880541  0.23083221  0.57952476     1.34900
C60         C  0.68180556  0.11979224  0.64008284     0.84500
O61         O  0.61727610  0.28332962  0.63893102    -0.79600
O62         O  0.61432296  0.29517332  0.59547564    -0.89900
C63         C  0.61670416  0.20158658  0.69741450     0.84100
O64         O  0.56945331  0.22820022  0.59186607    -0.68100
O65         O  0.62525637  0.04326002  0.65550454    -0.87300
C66         C  0.55785946  0.22258711  0.61417374     0.84900
C67         C  0.61676458  0.31168030  0.61881256     1.06500
H68         H  0.59144866  0.13069887  0.64427265     0.38300
O69         O  0.61190999  0.14024039  0.64415651    -1.10000
O70         O  0.66766733  0.12628692  0.61883880    -0.66700
Ni71       Ni  0.62637099  0.12784226  0.60947465     1.26300
O72         O  0.57284864  0.21541102  0.63477860    -0.66900
O73         O  0.62398268  0.05616417  0.61226922    -0.79200
C74         C  0.62185246  0.13738173  0.55565634     0.84300
O75         O  0.63852011  0.12009222  0.57342023    -0.66400
Ni76       Ni  0.62934529  0.10626825  0.67289481     1.27400
Ni77       Ni  0.61435964  0.21193668  0.64261510     1.26100
H78         H  0.64816699  0.20961050  0.60721129     0.38800
O79         O  0.60412145  0.66772426  0.55932992    -0.81100
O80         O  0.60552204  0.72245943  0.67630520    -0.65800
O81         O  0.63008236  0.69887379  0.60586978    -1.12400
C82         C  0.62403477  0.52763787  0.63113816     1.05700
O83         O  0.63740218  0.66733638  0.69133670    -0.79000
O84         O  0.67067253  0.61001111  0.65979321    -0.66600
Ni85       Ni  0.61071327  0.73004563  0.57735368     1.34900
C86         C  0.68339158  0.61633156  0.63797590     0.84500
O87         O  0.62010423  0.78369239  0.63655729    -0.79600
O88         O  0.61580861  0.79478242  0.59314986    -0.89900
C89         C  0.61939658  0.70289302  0.69522843     0.84100
O90         O  0.57148301  0.72643633  0.58987165    -0.68100
O91         O  0.62547060  0.54389691  0.65452354    -0.87300
C92         C  0.56017333  0.72200730  0.61236040     0.84900
C93         C  0.61880497  0.81173249  0.61633376     1.06500
H94         H  0.59331119  0.63185946  0.64263122     0.38300
O95         O  0.61384065  0.64094712  0.64241415    -1.10000
O96         O  0.66930096  0.62472398  0.61691819    -0.66700
Ni97       Ni  0.62799930  0.62753672  0.60784258     1.26300
O98         O  0.57538574  0.71640585  0.63293427    -0.66900
O99         O  0.62496366  0.55613206  0.61116085    -0.79200
C100        C  0.62385769  0.63578942  0.55395452     0.84300
O101        O  0.64009373  0.61851652  0.57198611    -0.66400
Ni102      Ni  0.63096261  0.60727124  0.67131848     1.27400
Ni103      Ni  0.61684240  0.71242126  0.64052201     1.26100
H104        H  0.65045225  0.70881520  0.60485831     0.38800
O105        O  0.39894087  0.16407441  0.93969564    -0.81100
O106        O  0.39539463  0.22045503  0.82457591    -0.65800
O107        O  0.37123268  0.19553223  0.89483986    -1.12400
C108        C  0.37422335  0.02420936  0.86917885     1.05700
O109        O  0.36395482  0.16471034  0.80872709    -0.79000
O110        O  0.32912231  0.11068892  0.84085143    -0.66600
Ni111      Ni  0.38972792  0.22701126  0.92358766     1.34900
C112        C  0.31687727  0.11631228  0.86299234     0.84500
O113        O  0.38136781  0.28097056  0.86523268    -0.79600
O114        O  0.38155065  0.29156401  0.90899233    -0.89900
C115        C  0.38137867  0.20143902  0.80545780     0.84100
O116        O  0.42888859  0.23066267  0.91075476    -0.68100
O117        O  0.37242661  0.04089035  0.84595120    -0.87300
C118        C  0.44089425  0.22455494  0.88861988     0.84900
C119        C  0.38014607  0.30864570  0.88572946     1.06500
H120        H  0.40727975  0.12831029  0.85747735     0.38300
O121        O  0.38681974  0.13775719  0.85800114    -1.10000
O122        O  0.33143890  0.12228369  0.88407046    -0.66700
Ni123      Ni  0.37294370  0.12418442  0.89274386     1.26300
O124        O  0.42617253  0.21312749  0.86829381    -0.66900
O125        O  0.37499461  0.05248784  0.88931898    -0.79200
C126        C  0.37919799  0.13291940  0.94622814     0.84300
O127        O  0.36186525  0.11560412  0.92892789    -0.66400
Ni128      Ni  0.36874622  0.10470605  0.82917972     1.27400
Ni129      Ni  0.38446351  0.20954541  0.86046835     1.26100
H130        H  0.35085683  0.20542689  0.89569167     0.38800
O131        O  0.39655036  0.66752810  0.93901829    -0.81100
O132        O  0.39307092  0.71917519  0.82262165    -0.65800
O133        O  0.36867046  0.69489284  0.89293660    -1.12400
C134        C  0.37287701  0.52363183  0.86984373     1.05700
O135        O  0.36502856  0.65933347  0.80559393    -0.79000
O136        O  0.32806571  0.61493280  0.83971011    -0.66600
Ni137      Ni  0.38635770  0.72873381  0.92148632     1.34900
C138        C  0.31615866  0.61743371  0.86211652     0.84500
O139        O  0.37771808  0.78004913  0.86236666    -0.79600
O140        O  0.37741560  0.79218811  0.90596243    -0.89900
C141        C  0.38058533  0.69865344  0.80310985     0.84100
O142        O  0.42557377  0.73252693  0.90878863    -0.68100
O143        O  0.36792978  0.53949995  0.84686139    -0.87300
C144        C  0.43775609  0.72523351  0.88682266     0.84900
C145        C  0.37595782  0.80840023  0.88255470     1.06500
H146        H  0.40621883  0.62818964  0.85565406     0.38300
O147        O  0.38564706  0.63678763  0.85648908    -1.10000
O148        O  0.33098332  0.61805930  0.88326073    -0.66700
Ni149      Ni  0.37246724  0.62384759  0.89159565     1.26300
O150        O  0.42325570  0.71351905  0.86647033    -0.66900
O151        O  0.37700551  0.55283071  0.88917372    -0.79200
C152        C  0.37814122  0.63382594  0.94515901     0.84300
O153        O  0.36147139  0.61531925  0.92775007    -0.66400
Ni154      Ni  0.36707713  0.60197766  0.82839147     1.27400
Ni155      Ni  0.38184746  0.70849129  0.85839682     1.26100
H156        H  0.34805342  0.70327185  0.89361031     0.38800
O157        O  0.39161495  0.31469406  0.56373667    -0.81100
O158        O  0.38692602  0.25970960  0.67994320    -0.65800
O159        O  0.36306897  0.28736491  0.60977005    -1.12400
C160        C  0.36649052  0.45698809  0.63266811     1.05700
O161        O  0.36558956  0.32563363  0.69895221    -0.79000
O162        O  0.32396245  0.35531405  0.66369200    -0.66600
Ni163      Ni  0.38026351  0.25370740  0.58085718     1.34900
C164        C  0.31185870  0.35943003  0.64140400     0.84500
O165        O  0.37072745  0.20088676  0.63957676    -0.79600
O166        O  0.37036100  0.19051349  0.59582882    -0.89900
C167        C  0.37830725  0.28327987  0.70022654     0.84100
O168        O  0.41924324  0.24736284  0.59356479    -0.68100
O169        O  0.35667606  0.44028253  0.65424577    -0.87300
C170        C  0.43155845  0.25299998  0.61556784     0.84900
C171        C  0.36898947  0.17338932  0.61904058     1.06500
H172        H  0.40187163  0.35201278  0.64780361     0.38300
O173        O  0.38121537  0.34410237  0.64659899    -1.10000
O174        O  0.32680642  0.36599341  0.62047823    -0.66700
Ni175      Ni  0.36831047  0.35791771  0.61152090     1.26300
O176        O  0.41738012  0.26531055  0.63605069    -0.66900
O177        O  0.37496601  0.42815141  0.61442588    -0.79200
C178        C  0.37342849  0.34857152  0.55759727     0.84300
O179        O  0.35725430  0.36776140  0.57525973    -0.66400
Ni180      Ni  0.36153687  0.37936551  0.67410040     1.27400
Ni181      Ni  0.37601095  0.27229736  0.64421445     1.26100
H182        H  0.34230658  0.28009058  0.60905120     0.38800
O183        O  0.39338457  0.81182313  0.56172733    -0.81100
O184        O  0.38976337  0.76119959  0.67855980    -0.65800
O185        O  0.36553714  0.78649489  0.60841199    -1.12400
C186        C  0.36803613  0.95709462  0.63016540     1.05700
O187        O  0.36728015  0.82621012  0.69716728    -0.79000
O188        O  0.32651270  0.85832905  0.66198965    -0.66600
Ni189      Ni  0.38271212  0.75144839  0.57988295     1.34900
C190        C  0.31415757  0.86177380  0.63981318     0.84500
O191        O  0.37314970  0.70138051  0.63942151    -0.79600
O192        O  0.37381597  0.68839535  0.59589434    -0.89900
C193        C  0.38015064  0.78409158  0.69861883     0.84100
O194        O  0.42184108  0.74690160  0.59223689    -0.68100
O195        O  0.36049279  0.94058127  0.65243863    -0.87300
C196        C  0.43412448  0.75260887  0.61422814     0.84900
C197        C  0.37207706  0.67268637  0.61938816     1.06500
H198        H  0.40436691  0.85250363  0.64555682     0.38300
O199        O  0.38369868  0.84453591  0.64464176    -1.10000
O200        O  0.32886619  0.86550968  0.61854866    -0.66700
Ni201      Ni  0.37038388  0.85740111  0.60951530     1.26300
O202        O  0.41995599  0.76511417  0.63469217    -0.66900
O203        O  0.37611617  0.92827894  0.61171621    -0.79200
C204        C  0.37561374  0.84649726  0.55571468     0.84300
O205        O  0.35933823  0.86588855  0.57324718    -0.66400
Ni206      Ni  0.36450658  0.88006646  0.67229480     1.27400
Ni207      Ni  0.37861420  0.77273257  0.64295244     1.26100
H208        H  0.34479683  0.77899510  0.60784032     0.38800
O209        O  0.89130127  0.06569140  0.56275488    -0.81100
O210        O  0.88970043  0.01523781  0.67847221    -0.65800
O211        O  0.86381899  0.03723609  0.60869009    -1.12400
C212        C  0.86563428  0.20927050  0.63136019     1.05700
O213        O  0.86048860  0.07333015  0.69570710    -0.79000
O214        O  0.82228434  0.11768167  0.66225281    -0.66600
Ni215      Ni  0.88175834  0.00407131  0.58011495     1.34900
C216        C  0.81012908  0.11491216  0.63993655     0.84500
O217        O  0.87442213  0.95260129  0.63934974    -0.79600
O218        O  0.87333218  0.94064350  0.59573267    -0.89900
C219        C  0.87719105  0.03542283  0.69802974     0.84100
O220        O  0.92113653  0.00026189  0.59244859    -0.68100
O221        O  0.86176001  0.19344483  0.65453765    -0.87300
C222        C  0.93356542  0.00785126  0.61425501     0.84900
C223        C  0.87263047  0.92424403  0.61913462     1.06500
H224        H  0.90067261  0.10626632  0.64511338     0.38300
O225        O  0.88025129  0.09666067  0.64463867    -1.10000
O226        O  0.82484973  0.11258273  0.61870389    -0.66700
Ni227      Ni  0.86630547  0.10853179  0.60971408     1.26300
O228        O  0.91926325  0.02097507  0.63453785    -0.66900
O229        O  0.86946984  0.18003546  0.61193504    -0.79200
C230        C  0.87204356  0.09757887  0.55618483     0.84300
O231        O  0.85493053  0.11564356  0.57346764    -0.66400
Ni232      Ni  0.86161412  0.13087796  0.67297471     1.27400
Ni233      Ni  0.87772155  0.02464295  0.64299439     1.26100
H234        H  0.84333110  0.02775161  0.60831341     0.38800
O235        O  0.89438488  0.56872927  0.56293382    -0.81100
O236        O  0.88974311  0.51136459  0.67749790    -0.65800
O237        O  0.86544997  0.53852460  0.60771525    -1.12400
C238        C  0.86544497  0.70835036  0.63270082     1.05700
O239        O  0.86247424  0.57087478  0.69617126    -0.79000
O240        O  0.82282152  0.60785998  0.66123870    -0.66600
Ni241      Ni  0.88378816  0.50631948  0.57893782     1.34900
C242        C  0.81146314  0.61015921  0.63857552     0.84500
O243        O  0.87509319  0.45209911  0.63698304    -0.79600
O244        O  0.87443238  0.44200525  0.59325228    -0.89900
C245        C  0.87837007  0.53179107  0.69754588     0.84100
O246        O  0.92282912  0.50106174  0.59189487    -0.68100
O247        O  0.85799818  0.69073488  0.65481167    -0.87300
C248        C  0.93489947  0.50861194  0.61385585     0.84900
C249        C  0.87324717  0.42465064  0.61645081     1.06500
H250        H  0.90165835  0.60516189  0.64659130     0.38300
O251        O  0.88129016  0.59557324  0.64511622    -1.10000
O252        O  0.82693006  0.61458927  0.61786633    -0.66700
Ni253      Ni  0.86870491  0.60961903  0.61000406     1.26300
O254        O  0.92020200  0.52075946  0.63408152    -0.66900
O255        O  0.87284982  0.68048796  0.61359046    -0.79200
C256        C  0.87556118  0.60134379  0.55641664     0.84300
O257        O  0.85845151  0.61938358  0.57368054    -0.66400
Ni258      Ni  0.86072147  0.62783987  0.67306055     1.27400
Ni259      Ni  0.87851887  0.52366323  0.64202120     1.26100
H260        H  0.84488431  0.52967016  0.60683867     0.38800
O261        O  0.89953644  0.42232887  0.93796670    -0.81100
O262        O  0.89652993  0.47217535  0.82170156    -0.65800
O263        O  0.87155417  0.44842627  0.89196216    -1.12400
C264        C  0.87766836  0.27722678  0.86750625     1.05700
O265        O  0.86470766  0.41650059  0.80667454    -0.79000
O266        O  0.83063768  0.36265434  0.83937512    -0.66600
Ni267      Ni  0.88829951  0.48311889  0.92057692     1.34900
C268        C  0.81900981  0.36580853  0.86188511     0.84500
O269        O  0.88067216  0.53364319  0.86141381    -0.79600
O270        O  0.87808011  0.54588466  0.90493305    -0.89900
C271        C  0.88246766  0.45249951  0.80279498     0.84100
O272        O  0.92751247  0.48926853  0.90817576    -0.68100
O273        O  0.87411994  0.29366578  0.84440255    -0.87300
C274        C  0.94033288  0.48036602  0.88668537     0.84900
C275        C  0.87722833  0.56191417  0.88145935     1.06500
H276        H  0.90908670  0.38201729  0.85470346     0.38300
O277        O  0.88852543  0.39068154  0.85560494    -1.10000
O278        O  0.83402975  0.37119668  0.88270866    -0.66700
Ni279      Ni  0.87554715  0.37723815  0.89058178     1.26300
O280        O  0.92648596  0.46736866  0.86612882    -0.66900
O281        O  0.87981035  0.30585497  0.88746154    -0.79200
C282        C  0.88139549  0.38832471  0.94431650     0.84300
O283        O  0.86510016  0.36853193  0.92693876    -0.66400
Ni284      Ni  0.87004746  0.35690973  0.82725907     1.27400
Ni285      Ni  0.88505093  0.46220694  0.85753884     1.26100
H286        H  0.85088120  0.45646753  0.89233365     0.38800
O287        O  0.89577469  0.91708942  0.93647386    -0.81100
O288        O  0.89363260  0.97160291  0.82157569    -0.65800
O289        O  0.86826248  0.94816884  0.89149286    -1.12400
C290        C  0.87036894  0.77687328  0.86621533     1.05700
O291        O  0.86102937  0.91766211  0.80577917    -0.79000
O292        O  0.82542712  0.86443232  0.83792143    -0.66600
Ni293      Ni  0.88652473  0.97977570  0.92026571     1.34900
C294        C  0.81350070  0.86856296  0.86028541     0.84500
O295        O  0.88031048  0.03334476  0.86181508    -0.79600
O296        O  0.87864280  0.04411596  0.90547963    -0.89900
C297        C  0.87918509  0.95338547  0.80253794     0.84100
O298        O  0.92573787  0.98314313  0.90772188    -0.68100
O299        O  0.86784663  0.79347524  0.84301152    -0.87300
C300        C  0.93822318  0.97549724  0.88594435     0.84900
C301        C  0.87874805  0.06125355  0.88221552     1.06500
H302        H  0.90392578  0.87957899  0.85423382     0.38300
O303        O  0.88359602  0.88978121  0.85487729    -1.10000
O304        O  0.82829008  0.87425930  0.88124449    -0.66700
Ni305      Ni  0.86983680  0.87674833  0.88965109     1.26300
O306        O  0.92393540  0.96351414  0.86545323    -0.66900
O307        O  0.87198100  0.80520342  0.88629555    -0.79200
C308        C  0.87614116  0.88592256  0.94312754     0.84300
O309        O  0.85880919  0.86838468  0.92589926    -0.66400
Ni310      Ni  0.86495705  0.85738362  0.82616342     1.27400
Ni311      Ni  0.88220955  0.96161818  0.85726500     1.26100
H312        H  0.84790290  0.95823862  0.89203212     0.38800
O313        O  0.10740192  0.07147493  0.93969366    -0.81100
O314        O  0.10960125  0.01303760  0.82424534    -0.65800
O315        O  0.13480355  0.03990920  0.89416045    -1.12400
C316        C  0.13539082  0.21008083  0.87001028     1.05700
O317        O  0.13590063  0.07376860  0.80558328    -0.79000
O318        O  0.17657798  0.11083241  0.83946470    -0.66600
Ni319      Ni  0.11663949  0.00873498  0.92324290     1.34900
C320        C  0.18869154  0.11131766  0.86183314     0.84500
O321        O  0.12431183  0.95374180  0.86489382    -0.79600
O322        O  0.12468437  0.94421105  0.90867042    -0.89900
C323        C  0.12052520  0.03407845  0.80413240     0.84100
O324        O  0.07741899  0.00500769  0.91071992    -0.68100
O325        O  0.14124184  0.19288294  0.84741151    -0.87300
C326        C  0.06501077  0.01068112  0.88879314     0.84900
C327        C  0.12571827  0.92653041  0.88551167     1.06500
H328        H  0.09812836  0.10706818  0.85649330     0.38300
O329        O  0.11852955  0.09740189  0.85729146    -1.10000
O330        O  0.17397795  0.11462997  0.88307309    -0.66700
Ni331      Ni  0.13243456  0.11098244  0.89221512     1.26300
O332        O  0.07941143  0.02172263  0.86820621    -0.66900
O333        O  0.12906384  0.18203647  0.88925408    -0.79200
C334        C  0.12714519  0.10272944  0.94599591     0.84300
O335        O  0.14406798  0.12004494  0.92838258    -0.66400
Ni336      Ni  0.13810333  0.13027332  0.82895643     1.27400
Ni337      Ni  0.12109014  0.02527395  0.85991946     1.26100
H338        H  0.15526482  0.03043975  0.89478864     0.38800
O339        O  0.10790823  0.56542445  0.94012562    -0.81100
O340        O  0.11189451  0.51551498  0.82376470    -0.65800
O341        O  0.13635632  0.54009021  0.89388115    -1.12400
C342        C  0.13372969  0.71066686  0.87220845     1.05700
O343        O  0.13591397  0.57927855  0.80551896    -0.79000
O344        O  0.17639639  0.61125187  0.84103625    -0.66600
Ni345      Ni  0.11887792  0.50501231  0.92215035     1.34900
C346        C  0.18829044  0.61435863  0.86344619     0.84500
O347        O  0.12808169  0.45507918  0.86279173    -0.79600
O348        O  0.12862291  0.44222903  0.90619602    -0.89900
C349        C  0.12175453  0.53836538  0.80384467     0.84100
O350        O  0.07970933  0.50018330  0.90945964    -0.68100
O351        O  0.14237287  0.69399104  0.85026618    -0.87300
C352        C  0.06739634  0.50817870  0.88766293     0.84900
C353        C  0.13023918  0.42634519  0.88269560     1.06500
H354        H  0.09825315  0.60687057  0.85656078     0.38300
O355        O  0.11881924  0.59837757  0.85770679    -1.10000
O356        O  0.17329936  0.61861012  0.88448864    -0.66700
Ni357      Ni  0.13169058  0.61097448  0.89295812     1.26300
O358        O  0.08183421  0.52077530  0.86742377    -0.66900
O359        O  0.12595406  0.68186516  0.89075525    -0.79200
C360        C  0.12605415  0.59927975  0.94662272     0.84300
O361        O  0.14239731  0.61915421  0.92932128    -0.66400
Ni362      Ni  0.13864306  0.63334265  0.83033654     1.27400
Ni363      Ni  0.12324263  0.52659153  0.85932627     1.26100
H364        H  0.15706707  0.53239959  0.89447486     0.38800
O365        O  0.10589868  0.42598076  0.56275020    -0.81100
O366        O  0.10580016  0.47596648  0.68026278    -0.65800
O367        O  0.13157775  0.45343365  0.61000577    -1.12400
C368        C  0.12402033  0.28168757  0.63403393     1.05700
O369        O  0.13757752  0.42031017  0.69484885    -0.79000
O370        O  0.17066880  0.36257422  0.66346548    -0.66600
Ni371      Ni  0.11418858  0.48713457  0.58136523     1.34900
C372        C  0.18363060  0.36878726  0.64176007     0.84500
O373        O  0.12207521  0.53786506  0.64126398    -0.79600
O374        O  0.12151264  0.55063551  0.59779020    -0.89900
C375        C  0.11977750  0.45600401  0.69905219     0.84100
O376        O  0.07446713  0.48784704  0.59308274    -0.68100
O377        O  0.12513571  0.29779808  0.65743462    -0.87300
C378        C  0.06201721  0.48164221  0.61500580     0.84900
C379        C  0.12341107  0.56650738  0.62129525     1.06500
H380        H  0.09340424  0.38653868  0.64579577     0.38300
O381        O  0.11401502  0.39510010  0.64576638    -1.10000
O382        O  0.16973910  0.37750500  0.62061054    -0.66700
Ni383      Ni  0.12851645  0.38206730  0.61121948     1.26300
O384        O  0.07624043  0.47238929  0.63586295    -0.66900
O385        O  0.12485608  0.31044691  0.61408785    -0.79200
C386        C  0.12478250  0.39260039  0.55720973     0.84300
O387        O  0.14062224  0.37380381  0.57517887    -0.66400
Ni388      Ni  0.13078675  0.36067408  0.67458903     1.27400
Ni389      Ni  0.11762353  0.46658227  0.64447741     1.26100
H390        H  0.15213082  0.46238152  0.60968296     0.38800
O391        O  0.10471159  0.92148114  0.56188506    -0.81100
O392        O  0.10573413  0.97618412  0.67896552    -0.65800
O393        O  0.13050117  0.95368425  0.60830469    -1.12400
C394        C  0.12931989  0.78232570  0.63354708     1.05700
O395        O  0.13889830  0.92305091  0.69392756    -0.79000
O396        O  0.17379772  0.86896182  0.66180499    -0.66600
Ni397      Ni  0.11123843  0.98415805  0.57962764     1.34900
C398        C  0.18598392  0.87520226  0.63969202     0.84500
O399        O  0.11904312  0.03815579  0.63878922    -0.79600
O400        O  0.11644566  0.04897267  0.59521923    -0.89900
C401        C  0.12013102  0.95744722  0.69790081     0.84100
O402        O  0.07193666  0.98138858  0.59208498    -0.68100
O403        O  0.13070553  0.79884191  0.65688086    -0.87300
C404        C  0.06023848  0.97599750  0.61437139     0.84900
C405        C  0.11854836  0.06606891  0.61845676     1.06500
H406        H  0.09536905  0.88455416  0.64538313     0.38300
O407        O  0.11568197  0.89496080  0.64493007    -1.10000
O408        O  0.17132004  0.88188980  0.61879513    -0.66700
Ni409      Ni  0.12986385  0.88228780  0.61019332     1.26300
O410        O  0.07521735  0.96884495  0.63506066    -0.66900
O411        O  0.12862201  0.81069626  0.61351640    -0.79200
C412        C  0.12460590  0.88989688  0.55634198     0.84300
O413        O  0.14160620  0.87389983  0.57415116    -0.66400
Ni414      Ni  0.13425025  0.86268491  0.67366916     1.27400
Ni415      Ni  0.11697209  0.96669186  0.64292939     1.26100
H416        H  0.15069983  0.96463655  0.60745137     0.38800
O417        O  0.36511045  0.16763523  0.19623071    -0.81100
O418        O  0.36096984  0.11997683  0.07433756    -0.65800
O419        O  0.38500438  0.14252977  0.14554765    -1.12400
C420        C  0.37733886  0.31389536  0.11837195     1.05700
O421        O  0.39671631  0.17080775  0.06302888    -0.79000
O422        O  0.42622329  0.23569732  0.09239998    -0.66600
Ni423      Ni  0.36553381  0.10976884  0.17375110     1.34900
C424        C  0.43851017  0.22698145  0.11409862     0.84500
O425        O  0.37536005  0.05783859  0.11342828    -0.79600
O426        O  0.36454411  0.04685333  0.15563421    -0.89900
C427        C  0.37806174  0.13750995  0.05696117     0.84100
O428        O  0.32689340  0.12512362  0.16238612    -0.68100
O429        O  0.37848193  0.29678274  0.09509089    -0.87300
C430        C  0.31506057  0.12405960  0.13991947     0.84900
C431        C  0.36975424  0.02977994  0.13290334     1.06500
H432        H  0.34831043  0.20928133  0.10828199     0.38300
O433        O  0.36883439  0.20026246  0.10884881    -1.10000
O434        O  0.42404841  0.21689357  0.13473997    -0.66700
Ni435      Ni  0.38252565  0.21444288  0.14321175     1.26300
O436        O  0.33009982  0.12380977  0.11883845    -0.66900
O437        O  0.37935270  0.28622246  0.13875996    -0.79200
C438        C  0.38202974  0.20526874  0.19860730     0.84300
O439        O  0.39432271  0.22547092  0.17889702    -0.66400
Ni440      Ni  0.38691140  0.23272606  0.08003010     1.27400
Ni441      Ni  0.37174910  0.12903542  0.11053240     1.26100
H442        H  0.40540169  0.13284046  0.14652135     0.38800
O443        O  0.36749479  0.66326784  0.19601557    -0.81100
O444        O  0.35913001  0.61991126  0.07306134    -0.65800
O445        O  0.38401304  0.64339564  0.14389626    -1.12400
C446        C  0.37093288  0.81436603  0.11769031     1.05700
O447        O  0.39276902  0.67416807  0.06082437    -0.79000
O448        O  0.42127462  0.74079374  0.09048442    -0.66600
Ni449      Ni  0.36486352  0.60833812  0.17165639     1.34900
C450        C  0.43417395  0.73370923  0.11208276     0.84500
O451        O  0.37703311  0.55925857  0.11142007    -0.79600
O452        O  0.36137082  0.54683655  0.15210030    -0.89900
C453        C  0.37523747  0.63870023  0.05533741     0.84100
O454        O  0.32664371  0.62930233  0.16146033    -0.68100
O455        O  0.37208907  0.79788296  0.09430848    -0.87300
C456        C  0.31442780  0.62628580  0.13920563     0.84900
C457        C  0.36967171  0.53032062  0.12995754     1.06500
H458        H  0.34453680  0.70751900  0.10731187     0.38300
O459        O  0.36531449  0.70032022  0.10758351    -1.10000
O460        O  0.42032556  0.72189843  0.13283529    -0.66700
Ni461      Ni  0.37905853  0.71508934  0.14180772     1.26300
O462        O  0.32915177  0.62116479  0.11806959    -0.66900
O463        O  0.37361603  0.78626122  0.13780361    -0.79200
C464        C  0.38102031  0.70490624  0.19738136     0.84300
O465        O  0.39078066  0.72738353  0.17726256    -0.66400
Ni466      Ni  0.38180269  0.73483572  0.07865815     1.27400
Ni467      Ni  0.37055652  0.62965305  0.10898925     1.26100
H468        H  0.40466549  0.63539389  0.14478597     0.38800
O469        O  0.36516474  0.32400378  0.30580006    -0.81100
O470        O  0.35752071  0.36912272  0.42837746    -0.65800
O471        O  0.38361332  0.34705941  0.35736366    -1.12400
C472        C  0.37284858  0.17573930  0.38338174     1.05700
O473        O  0.39237928  0.31694130  0.43992975    -0.79000
O474        O  0.42180698  0.25079003  0.41055468    -0.66600
Ni475      Ni  0.36608097  0.38149333  0.32866535     1.34900
C476        C  0.43460495  0.25832051  0.38891780     0.84500
O477        O  0.37423338  0.43149522  0.38956183    -0.79600
O478        O  0.36631287  0.44427778  0.34697342    -0.89900
C479        C  0.37358221  0.34994220  0.44610513     0.84100
O480        O  0.32663418  0.36853866  0.33894385    -0.68100
O481        O  0.37333508  0.19213611  0.40681322    -0.87300
C482        C  0.31397012  0.36715347  0.36106192     0.84900
C483        C  0.37102800  0.46039244  0.36999834     1.06500
H484        H  0.34478445  0.28104893  0.39363445     0.38300
O485        O  0.36543357  0.28935126  0.39345833    -1.10000
O486        O  0.42078016  0.27025197  0.36828210    -0.66700
Ni487      Ni  0.37968062  0.27535442  0.35927889     1.26300
O488        O  0.32818465  0.36640674  0.38258810    -0.66900
O489        O  0.37537672  0.20395070  0.36326506    -0.79200
C490        C  0.38111820  0.28507602  0.30397135     0.84300
O491        O  0.39225532  0.26419252  0.32393287    -0.66400
Ni492      Ni  0.38226205  0.25560343  0.42240069     1.27400
Ni493      Ni  0.36939387  0.36042631  0.39216081     1.26100
H494        H  0.40421750  0.35561722  0.35704149     0.38800
O495        O  0.36308573  0.82136546  0.30639552    -0.81100
O496        O  0.36124227  0.86738909  0.42745543    -0.65800
O497        O  0.38573054  0.84799629  0.35598537    -1.12400
C498        C  0.38096958  0.67613781  0.38164682     1.05700
O499        O  0.39828843  0.81889386  0.43799848    -0.79000
O500        O  0.42901304  0.75625868  0.40797804    -0.66600
Ni501      Ni  0.36670661  0.88081590  0.32763881     1.34900
C502        C  0.44094041  0.76441727  0.38604446     0.84500
O503        O  0.37364339  0.93167580  0.38829197    -0.79600
O504        O  0.36925392  0.94418880  0.34513260    -0.89900
C505        C  0.37875004  0.85028284  0.44464247     0.84100
O506        O  0.32735906  0.87172911  0.33955411    -0.68100
O507        O  0.38263605  0.69261174  0.40504852    -0.87300
C508        C  0.31545911  0.86605642  0.36183937     0.84900
C509        C  0.37184131  0.96035015  0.36843368     1.06500
H510        H  0.35070402  0.77799775  0.39300046     0.38300
O511        O  0.37098043  0.78855158  0.39227835    -1.10000
O512        O  0.42616277  0.77429387  0.36555289    -0.66700
Ni513      Ni  0.38440138  0.77613281  0.35765129     1.26300
O514        O  0.33038014  0.86108925  0.38277807    -0.66900
O515        O  0.38207896  0.70429083  0.36140068    -0.79200
C516        C  0.38127652  0.78589860  0.30274266     0.84300
O517        O  0.39561642  0.76716204  0.32168624    -0.66400
Ni518      Ni  0.38982746  0.75667519  0.42067021     1.27400
Ni519      Ni  0.37205864  0.85997154  0.39101768     1.26100
H520        H  0.40603227  0.85842878  0.35532987     0.38800
O521        O  0.64194092  0.31178925  0.19279799    -0.81100
O522        O  0.64366580  0.36505892  0.07384599    -0.65800
O523        O  0.61830221  0.34040818  0.14453694    -1.12400
C524        C  0.62768231  0.17040054  0.11628228     1.05700
O525        O  0.60768860  0.31475928  0.06240639    -0.79000
O526        O  0.57797264  0.24671357  0.09093378    -0.66600
Ni527      Ni  0.63568180  0.37301387  0.17377240     1.34900
C528        C  0.56568754  0.25238757  0.11299939     0.84500
O529        O  0.62919004  0.42664489  0.11433094    -0.79600
O530        O  0.63056169  0.43743913  0.15787152    -0.89900
C531        C  0.62715802  0.34664872  0.05615077     0.84100
O532        O  0.67540769  0.37075778  0.16216242    -0.68100
O533        O  0.62626742  0.18779114  0.09307647    -0.87300
C534        C  0.68791937  0.36637824  0.14010503     0.84900
C535        C  0.62912129  0.45459842  0.13468868     1.06500
H536        H  0.65562584  0.27487120  0.10697129     0.38300
O537        O  0.63510468  0.28390735  0.10761424    -1.10000
O538        O  0.58008836  0.26413771  0.13341927    -0.66700
Ni539      Ni  0.62149339  0.26883818  0.14181012     1.26300
O540        O  0.67366584  0.35894014  0.11899202    -0.66900
O541        O  0.62552298  0.19760012  0.13687220    -0.79200
C542        C  0.62339118  0.27696970  0.19664496     0.84300
O543        O  0.60972371  0.25743189  0.17748897    -0.66400
Ni544      Ni  0.61737562  0.25205692  0.07855769     1.27400
Ni545      Ni  0.63231347  0.35520337  0.11006512     1.26100
H546        H  0.59773627  0.34918656  0.14497197     0.38800
O547        O  0.63591322  0.82188000  0.19402589    -0.81100
O548        O  0.63867208  0.86150422  0.07117129    -0.65800
O549        O  0.61583069  0.84381352  0.14308653    -1.12400
C550        C  0.62328954  0.67050923  0.11917820     1.05700
O551        O  0.60363740  0.80859324  0.06057860    -0.79000
O552        O  0.57448110  0.74558772  0.09175507    -0.66600
Ni553      Ni  0.63692364  0.87741131  0.17013459     1.34900
C554        C  0.56190504  0.75635596  0.11315328     0.84500
O555        O  0.62451531  0.92570576  0.10954265    -0.79600
O556        O  0.63948528  0.93849902  0.15053285    -0.89900
C557        C  0.62180276  0.84245885  0.05405400     0.84100
O558        O  0.67455656  0.85653470  0.15843905    -0.68100
O559        O  0.62265756  0.68600704  0.09562895    -0.87300
C560        C  0.68579644  0.85698893  0.13574775     0.84900
C561        C  0.63221517  0.95462938  0.12807977     1.06500
H562        H  0.65207979  0.77448273  0.10684470     0.38300
O563        O  0.63152642  0.78344596  0.10721674    -1.10000
O564        O  0.57624806  0.76951087  0.13341241    -0.66700
Ni565      Ni  0.61783656  0.77187095  0.14186079     1.26300
O566        O  0.67032069  0.86028430  0.11503200    -0.66900
O567        O  0.62061166  0.69972418  0.13894383    -0.79200
C568        C  0.61931317  0.78397059  0.19689310     0.84300
O569        O  0.60623225  0.76357243  0.17765982    -0.66400
Ni570      Ni  0.61376773  0.74842754  0.07912975     1.27400
Ni571      Ni  0.62844411  0.85464377  0.10764649     1.26100
H572        H  0.59557897  0.85413991  0.14447666     0.38800
O573        O  0.63571309  0.16707853  0.30590742    -0.81100
O574        O  0.63859812  0.11867622  0.42691234    -0.65800
O575        O  0.61380675  0.14157263  0.35593355    -1.12400
C576        C  0.62309918  0.31278435  0.38301288     1.05700
O577        O  0.60364319  0.17047223  0.43896987    -0.79000
O578        O  0.57400164  0.23554162  0.40932942    -0.66600
Ni579      Ni  0.63231375  0.10819628  0.32731245     1.34900
C580        C  0.56143534  0.22874717  0.38752031     0.84500
O581        O  0.62358972  0.05643637  0.38761098    -0.79600
O582        O  0.63015715  0.04481772  0.34458930    -0.89900
C583        C  0.62261556  0.13757613  0.44475705     0.84100
O584        O  0.67161247  0.11771711  0.33899028    -0.68100
O585        O  0.62185476  0.29580822  0.40626798    -0.87300
C586        C  0.68346355  0.11976636  0.36144466     0.84900
C587        C  0.62654954  0.02823732  0.36763628     1.06500
H588        H  0.65121776  0.20762470  0.39312294     0.38300
O589        O  0.63062686  0.19897451  0.39263892    -1.10000
O590        O  0.57562771  0.21764136  0.36683732    -0.66700
Ni591      Ni  0.61710091  0.21332166  0.35828980     1.26300
O592        O  0.66856515  0.12275224  0.38245460    -0.66900
O593        O  0.62109582  0.28492037  0.36264465    -0.79200
C594        C  0.61871414  0.20436887  0.30318149     0.84300
O595        O  0.60564845  0.22434262  0.32256798    -0.66400
Ni596      Ni  0.61330277  0.23206692  0.42158563     1.27400
Ni597      Ni  0.62723747  0.12776518  0.39084080     1.26100
H598        H  0.59327192  0.13261613  0.35517051     0.38800
O599        O  0.63696869  0.66323813  0.30342621    -0.81100
O600        O  0.64307680  0.61965895  0.42600807    -0.65800
O601        O  0.61836755  0.64152858  0.35501828    -1.12400
C602        C  0.62940865  0.81312405  0.38091556     1.05700
O603        O  0.60901727  0.67338362  0.43805075    -0.79000
O604        O  0.58016200  0.73974971  0.40802036    -0.66600
Ni605      Ni  0.63728141  0.60698830  0.32691673     1.34900
C606        C  0.56747897  0.73260580  0.38626272     0.84500
O607        O  0.62638590  0.55742164  0.38744860    -0.79600
O608        O  0.63852330  0.54486565  0.34571112    -0.89900
C609        C  0.62697834  0.63871725  0.44370141     0.84100
O610        O  0.67599999  0.62397281  0.33767782    -0.68100
O611        O  0.62902123  0.79704462  0.40436633    -0.87300
C612        C  0.68792733  0.62329032  0.36011285     0.84900
C613        C  0.63196142  0.52848134  0.36826684     1.06500
H614        H  0.65702353  0.70720293  0.39157607     0.38300
O615        O  0.63631194  0.69938712  0.39130939    -1.10000
O616        O  0.58139897  0.71898576  0.36588489    -0.66700
Ni617      Ni  0.62256848  0.71320268  0.35703929     1.26300
O618        O  0.67304087  0.62144842  0.38122466    -0.66900
O619        O  0.62699340  0.78464482  0.36086666    -0.79200
C620        C  0.62172005  0.70294305  0.30175155     0.84300
O621        O  0.61058495  0.72420013  0.32166213    -0.66400
Ni622      Ni  0.61960162  0.73404289  0.42011757     1.27400
Ni623      Ni  0.63173622  0.62842164  0.38998359     1.26100
H624        H  0.59777085  0.63302994  0.35418542     0.38800
O625        O  0.85847509  0.06415607  0.30735793    -0.81100
O626        O  0.85551808  0.10799056  0.42757327    -0.65800
O627        O  0.88165069  0.09007076  0.35659611    -1.12400
C628        C  0.87854979  0.91806507  0.38128668     1.05700
O629        O  0.89264681  0.06043843  0.43925853    -0.79000
O630        O  0.92519675  0.00072478  0.40836839    -0.66600
Ni631      Ni  0.86321961  0.12363692  0.32825063     1.34900
C632        C  0.93725389  0.00741811  0.38629011     0.84500
O633        O  0.86842869  0.17281042  0.38901451    -0.79600
O634        O  0.86653045  0.18673276  0.34585022    -0.89900
C635        C  0.87263100  0.09158565  0.44520102     0.84100
O636        O  0.82384023  0.11645899  0.33992254    -0.68100
O637        O  0.88020897  0.93437690  0.40472062    -0.87300
C638        C  0.81139907  0.10869062  0.36171740     0.84900
C639        C  0.86778565  0.20216412  0.36939514     1.06500
H640        H  0.84665904  0.01875522  0.39311447     0.38300
O641        O  0.86684298  0.02984120  0.39247674    -1.10000
O642        O  0.92241803  0.01626105  0.36566523    -0.66700
Ni643      Ni  0.88053922  0.01821542  0.35775692     1.26300
O644        O  0.82578509  0.10161110  0.38275401    -0.66900
O645        O  0.87862922  0.94654958  0.36118095    -0.79200
C646        C  0.87702114  0.02967730  0.30290324     0.84300
O647        O  0.89156685  0.01001182  0.32151513    -0.66400
Ni648      Ni  0.88587167  0.99839974  0.42090663     1.27400
Ni649      Ni  0.86729709  0.10119471  0.39144681     1.26100
H650        H  0.90194059  0.10061669  0.35634262     0.38800
O651        O  0.86341050  0.56297284  0.30790197    -0.81100
O652        O  0.85832246  0.61151296  0.42790679    -0.65800
O653        O  0.88514427  0.58849918  0.35762092    -1.12400
C654        C  0.87420715  0.41768683  0.38331281     1.05700
O655        O  0.89271075  0.55905608  0.44061171    -0.79000
O656        O  0.92312639  0.49425466  0.41121183    -0.66600
Ni657      Ni  0.86856513  0.62259565  0.32856775     1.34900
C658        C  0.93617823  0.50140940  0.38966420     0.84500
O659        O  0.87480453  0.67333571  0.38910255    -0.79600
O660        O  0.87262579  0.68582607  0.34583057    -0.89900
C661        C  0.87437974  0.59346963  0.44587843     0.84100
O662        O  0.82866733  0.61792546  0.33921174    -0.68100
O663        O  0.87515981  0.43413904  0.40674766    -0.87300
C664        C  0.81570549  0.61331929  0.36102608     0.84900
C665        C  0.87457226  0.70197813  0.36919451     1.06500
H666        H  0.84617739  0.52257646  0.39360365     0.38300
O667        O  0.86680171  0.53107282  0.39354640    -1.10000
O668        O  0.92242329  0.51202807  0.36875765    -0.66700
Ni669      Ni  0.88132565  0.51705739  0.35939939     1.26300
O670        O  0.82948946  0.60752698  0.38248042    -0.66900
O671        O  0.87679024  0.44575102  0.36318100    -0.79200
C672        C  0.88123995  0.52695664  0.30454516     0.84300
O673        O  0.89403801  0.50668953  0.32390915    -0.66400
Ni674      Ni  0.88339188  0.49767355  0.42262720     1.27400
Ni675      Ni  0.87053633  0.60219449  0.39206459     1.26100
H676        H  0.90575968  0.59698660  0.35760908     0.38800
O677        O  0.87014963  0.40955253  0.19647673    -0.81100
O678        O  0.86239122  0.37199245  0.07233363    -0.65800
O679        O  0.88509083  0.39314969  0.14408737    -1.12400
C680        C  0.87624684  0.56495525  0.11767924     1.05700
O681        O  0.89837625  0.42295853  0.06216453    -0.79000
O682        O  0.92680846  0.48649488  0.09284196    -0.66600
Ni683      Ni  0.86438023  0.35776606  0.17084551     1.34900
C684        C  0.93780817  0.48006320  0.11527360     0.84500
O685        O  0.87771833  0.31000095  0.11110523    -0.79600
O686        O  0.85742971  0.29858967  0.15008841    -0.89900
C687        C  0.87994666  0.38984629  0.05539442     0.84100
O688        O  0.82775363  0.38540912  0.16049535    -0.68100
O689        O  0.87938224  0.54829542  0.09445675    -0.87300
C690        C  0.81577398  0.38088165  0.13815496     0.84900
C691        C  0.86710658  0.28157450  0.12854321     1.06500
H692        H  0.84827773  0.45982787  0.10597511     0.38300
O693        O  0.86884645  0.45144998  0.10734269    -1.10000
O694        O  0.92241018  0.47114624  0.13547657    -0.66700
Ni695      Ni  0.88071460  0.46531561  0.14221623     1.26300
O696        O  0.83085390  0.37429951  0.11725542    -0.66900
O697        O  0.87624692  0.53685526  0.13798345    -0.79200
C698        C  0.88243868  0.45220353  0.19817767     0.84300
O699        O  0.89055496  0.47707843  0.17822921    -0.66400
Ni700      Ni  0.88806116  0.48448009  0.07926754     1.27400
Ni701      Ni  0.87266532  0.38063183  0.10875849     1.26100
H702        H  0.90561486  0.38451123  0.14551867     0.38800
O703        O  0.85889292  0.91934132  0.19227958    -0.81100
O704        O  0.85953350  0.87260544  0.07133475    -0.65800
O705        O  0.88249036  0.89520393  0.14274852    -1.12400
C706        C  0.87232126  0.06595822  0.11605753     1.05700
O707        O  0.89502683  0.92424382  0.06040834    -0.79000
O708        O  0.92331650  0.99034491  0.09094967    -0.66600
Ni709      Ni  0.86385552  0.86051777  0.17081991     1.34900
C710        C  0.93536329  0.98384771  0.11299238     0.84500
O711        O  0.87402832  0.81032588  0.11037331    -0.79600
O712        O  0.86757315  0.79735733  0.15320149    -0.89900
C713        C  0.87645177  0.89090854  0.05405883     0.84100
O714        O  0.82454326  0.86724944  0.15861218    -0.68100
O715        O  0.87480404  0.04910683  0.09280136    -0.87300
C716        C  0.81313245  0.87024730  0.13601733     0.84900
C717        C  0.87139417  0.78134470  0.12999146     1.06500
H718        H  0.84564554  0.96094106  0.10506606     0.38300
O719        O  0.86624826  0.95259428  0.10604571    -1.10000
O720        O  0.92056996  0.97275050  0.13335898    -0.66700
Ni721      Ni  0.87870343  0.96692391  0.14075732     1.26300
O722        O  0.82833056  0.87575636  0.11529018    -0.66900
O723        O  0.87401322  0.03840084  0.13651147    -0.79200
C724        C  0.87603193  0.95633061  0.19589452     0.84300
O725        O  0.88903184  0.97763015  0.17685557    -0.66400
Ni726      Ni  0.88441431  0.98573639  0.07762362     1.27400
Ni727      Ni  0.86989883  0.88156305  0.10759534     1.26100
H728        H  0.90308911  0.88685421  0.14372907     0.38800
O729        O  0.13518690  0.07594032  0.19756615    -0.81100
O730        O  0.14238845  0.11663417  0.07486405    -0.65800
O731        O  0.11669246  0.09739510  0.14601380    -1.12400
C732        C  0.12343096  0.92516486  0.12054211     1.05700
O733        O  0.10655341  0.06644288  0.06301855    -0.79000
O734        O  0.07545892  0.00472701  0.09372181    -0.66600
Ni735      Ni  0.13620875  0.13176583  0.17387219     1.34900
C736        C  0.06309560  0.01130166  0.11567725     0.84500
O737        O  0.12671214  0.18028317  0.11307519    -0.79600
O738        O  0.13856426  0.19363430  0.15479870    -0.89900
C739        C  0.12587025  0.09880442  0.05713513     0.84100
O740        O  0.17463841  0.11297721  0.16330755    -0.68100
O741        O  0.12176686  0.94146417  0.09718881    -0.87300
C742        C  0.18689553  0.11255006  0.14103601     0.84900
C743        C  0.13246474  0.20950928  0.13203411     1.06500
H744        H  0.15361255  0.02858081  0.10929919     0.38300
O745        O  0.13315442  0.03798820  0.10986680    -1.10000
O746        O  0.07764570  0.02126877  0.13631280    -0.66700
Ni747      Ni  0.11938927  0.02532715  0.14440830     1.26300
O748        O  0.17219437  0.11379775  0.11978329    -0.66900
O749        O  0.12290112  0.95348660  0.14078837    -0.79200
C750        C  0.11975292  0.03646890  0.19975111     0.84300
O751        O  0.10783955  0.01545433  0.18011333    -0.66400
Ni752      Ni  0.11482213  0.00509992  0.08127539     1.27400
Ni753      Ni  0.13057889  0.10913603  0.11095961     1.26100
H754        H  0.09625675  0.10704668  0.14674373     0.38800
O755        O  0.13790677  0.57228584  0.19701482    -0.81100
O756        O  0.14033857  0.61843950  0.07513206    -0.65800
O757        O  0.11691606  0.59695160  0.14660854    -1.12400
C758        C  0.12554995  0.42532167  0.12001297     1.05700
O759        O  0.10488418  0.56667128  0.06422615    -0.79000
O760        O  0.07630032  0.50009069  0.09414362    -0.66600
Ni761      Ni  0.13628457  0.63045067  0.17476050     1.34900
C762        C  0.06405487  0.50792689  0.11601451     0.84500
O763        O  0.12582775  0.68123350  0.11442155    -0.79600
O764        O  0.13582270  0.69348497  0.15678048    -0.89900
C765        C  0.12357464  0.59970923  0.05780260     0.84100
O766        O  0.17525340  0.61755887  0.16303996    -0.68100
O767        O  0.12455802  0.44181010  0.09662947    -0.87300
C768        C  0.18668318  0.61673240  0.14037303     0.84900
C769        C  0.13066204  0.70987297  0.13392506     1.06500
H770        H  0.15377323  0.53008549  0.10933663     0.38300
O771        O  0.13319887  0.53876464  0.10996258    -1.10000
O772        O  0.07836975  0.52127306  0.13620584    -0.66700
Ni773      Ni  0.11983352  0.52517518  0.14442315     1.26300
O774        O  0.17144668  0.61530605  0.11946220    -0.66900
O775        O  0.12346677  0.45334865  0.14031829    -0.79200
C776        C  0.12071171  0.53502877  0.19958987     0.84300
O777        O  0.10810480  0.51496174  0.18003245    -0.66400
Ni778      Ni  0.11538376  0.50524316  0.08135414     1.27400
Ni779      Ni  0.12982419  0.60995881  0.11149186     1.26100
H780        H  0.09645131  0.60621179  0.14768616     0.38800
O781        O  0.13449608  0.41356690  0.30598694    -0.81100
O782        O  0.14083839  0.36927174  0.42854407    -0.65800
O783        O  0.11586638  0.39040335  0.35735780    -1.12400
C784        C  0.12558004  0.56208929  0.38372108     1.05700
O785        O  0.10556221  0.42097823  0.43988424    -0.79000
O786        O  0.07633429  0.48684604  0.41043091    -0.66600
Ni787      Ni  0.13466745  0.35645397  0.32900647     1.34900
C788        C  0.06367031  0.47843203  0.38881334     0.84500
O789        O  0.12534650  0.30651724  0.38962252    -0.79600
O790        O  0.13594936  0.29381083  0.34747823    -0.89900
C791        C  0.12435030  0.38807517  0.44610921     0.84100
O792        O  0.17354602  0.37251818  0.33966475    -0.68100
O793        O  0.12486675  0.54578670  0.40713187    -0.87300
C794        C  0.18569340  0.37273513  0.36201505     0.84900
C795        C  0.13060148  0.27762085  0.37036722     1.06500
H796        H  0.15361985  0.45732149  0.39401225     0.38300
O797        O  0.13301945  0.44867702  0.39371063    -1.10000
O798        O  0.07777074  0.46611882  0.36830445    -0.66700
Ni799      Ni  0.11909194  0.46229579  0.35949373     1.26300
O800        O  0.17097284  0.37211369  0.38328752    -0.66900
O801        O  0.12285882  0.53386657  0.36358238    -0.79200
C802        C  0.11886326  0.45287993  0.30423270     0.84300
O803        O  0.10707473  0.47331835  0.32408407    -0.66400
Ni804      Ni  0.11575729  0.48235303  0.42255749     1.27400
Ni805      Ni  0.12953871  0.37758138  0.39229325     1.26100
H806        H  0.09536893  0.38120232  0.35666833     0.38800
O807        O  0.13716454  0.91382061  0.30602458    -0.81100
O808        O  0.14251415  0.86873264  0.42808732    -0.65800
O809        O  0.11722215  0.89036458  0.35714348    -1.12400
C810        C  0.12715901  0.06180040  0.38339879     1.05700
O811        O  0.10720610  0.92023198  0.43979875    -0.79000
O812        O  0.07758393  0.98588392  0.41004415    -0.66600
Ni813      Ni  0.13565301  0.85620820  0.32862377     1.34900
C814        C  0.06496899  0.97966529  0.38822087     0.84500
O815        O  0.12691565  0.80589508  0.38938119    -0.79600
O816        O  0.13493635  0.79341211  0.34670100    -0.89900
C817        C  0.12610826  0.88725976  0.44574731     0.84100
O818        O  0.17501660  0.86897004  0.33948774    -0.68100
O819        O  0.12562689  0.04536343  0.40677878    -0.87300
C820        C  0.18718251  0.87102071  0.36180658     0.84900
C821        C  0.13029636  0.77724768  0.36968075     1.06500
H822        H  0.15508416  0.95700652  0.39396105     0.38300
O823        O  0.13449232  0.94833818  0.39351023    -1.10000
O824        O  0.07921889  0.96782615  0.36765086    -0.66700
Ni825      Ni  0.12082711  0.96217739  0.35921144     1.26300
O826        O  0.17254131  0.87181301  0.38310939    -0.66900
O827        O  0.12543153  0.03373103  0.36312415    -0.79200
C828        C  0.12113028  0.95258120  0.30404805     0.84300
O829        O  0.10908121  0.97294486  0.32377959    -0.66400
Ni830      Ni  0.11698042  0.98176785  0.42228409     1.27400
Ni831      Ni  0.13106877  0.87715580  0.39202196     1.26100
H832        H  0.09665697  0.88159282  0.35657077     0.38800
C833        C  0.12860693  0.61699292  0.37992672    -0.05700
C834        C  0.11939310  0.63850142  0.35634115    -0.33100
C835        C  0.11956712  0.69042962  0.35291645     0.36100
C836        C  0.12917097  0.72225787  0.37325670    -0.06100
C837        C  0.13871083  0.70091072  0.39675191    -0.33000
C838        C  0.13882956  0.64885573  0.40009704     0.36000
H839        H  0.11121556  0.61512103  0.34064084     0.16400
O840        O  0.10973284  0.70965675  0.32969840    -0.60500
H841        H  0.14664850  0.72460961  0.41243754     0.16400
O842        O  0.14908471  0.62970661  0.42318186    -0.60600
H843        H  0.17020574  0.62293641  0.42006766     0.43400
H844        H  0.08832868  0.71455523  0.33215061     0.43300
C845        C  0.13070431  0.22242661  0.37434808    -0.05700
C846        C  0.14301447  0.19086457  0.35512154    -0.33100
C847        C  0.14278615  0.13864253  0.35795653     0.36100
C848        C  0.12978603  0.11682022  0.38014950    -0.06100
C849        C  0.11816010  0.14833340  0.39961160    -0.33000
C850        C  0.11840997  0.20041297  0.39685504     0.36000
H851        H  0.15303968  0.20663377  0.33779026     0.16400
O852        O  0.15558525  0.10947213  0.33904768    -0.60500
H853        H  0.10801631  0.13251901  0.41688105     0.16400
O854        O  0.10610142  0.22919837  0.41618431    -0.60600
H855        H  0.08507710  0.23215586  0.41142864     0.43400
H856        H  0.17632915  0.10570360  0.34455612     0.43300
C857        C  0.11668976  0.51410397  0.22630377    -0.05700
C858        C  0.11882403  0.54615157  0.24814037    -0.33100
C859        C  0.11793297  0.52723932  0.27370840     0.36100
C860        C  0.11548738  0.47529662  0.27787614    -0.06100
C861        C  0.11236109  0.44348821  0.25610768    -0.33000
C862        C  0.11236771  0.46253012  0.23058783     0.36000
H863        H  0.12169009  0.58609098  0.24537715     0.16400
O864        O  0.12074497  0.55964571  0.29437412    -0.60500
H865        H  0.11032221  0.40340533  0.25889346     0.16400
O866        O  0.10996304  0.42992902  0.20999691    -0.60600
H867        H  0.08857528  0.42629554  0.20694617     0.43400
H868        H  0.14213057  0.56170773  0.29781529     0.43300
C869        C  0.12995628  0.76504715  0.13025739    -0.05700
C870        C  0.11458190  0.78531890  0.10907108    -0.33100
C871        C  0.11243785  0.83717263  0.10573795     0.36100
C872        C  0.12568151  0.87017116  0.12385876    -0.06100
C873        C  0.14133598  0.85007170  0.14491450    -0.33000
C874        C  0.14372021  0.79809068  0.14813142     0.36000
H875        H  0.10363130  0.76092962  0.09522266     0.16400
O876        O  0.09610311  0.85517768  0.08532054    -0.60500
H877        H  0.15212977  0.87470607  0.15874682     0.16400
O878        O  0.16043880  0.78009354  0.16830396    -0.60600
H879        H  0.14778861  0.78270545  0.18402235     0.43400
H880        H  0.10923021  0.85332740  0.06988274     0.43300
C881        C  0.13185637  0.26469265  0.12803947    -0.05700
C882        C  0.14394980  0.29655410  0.14721223    -0.33100
C883        C  0.14214514  0.34880951  0.14500000     0.36100
C884        C  0.12838035  0.37033073  0.12317402    -0.06100
C885        C  0.11679678  0.33860107  0.10377110    -0.33000
C886        C  0.11842461  0.28644467  0.10601333     0.36000
H887        H  0.15480376  0.28102211  0.16417159     0.16400
O888        O  0.15488768  0.37845104  0.16374576    -0.60500
H889        H  0.10582651  0.35427860  0.08689943     0.16400
O890        O  0.10564604  0.25731807  0.08707087    -0.60600
H891        H  0.12055702  0.25463098  0.07301119     0.43400
H892        H  0.14262154  0.37407402  0.17957433     0.43300
C893        C  0.11679945  0.01466655  0.22640223    -0.05700
C894        C  0.12033769  0.04612224  0.24834157    -0.33100
C895        C  0.12045488  0.02675323  0.27376554     0.36100
C896        C  0.11762928  0.97491072  0.27775277    -0.06100
C897        C  0.11336506  0.94346877  0.25599042    -0.33000
C898        C  0.11264167  0.96293761  0.23053211     0.36000
H899        H  0.12354378  0.08603610  0.24578899     0.16400
O900        O  0.12546723  0.05840570  0.29440822    -0.60500
H901        H  0.11098734  0.90342720  0.25872627     0.16400
O902        O  0.10885065  0.93080296  0.20987448    -0.60600
H903        H  0.12887922  0.91940018  0.20514367     0.43400
H904        H  0.10585429  0.07136525  0.29940411     0.43300
C905        C  0.96811064  0.99025431  0.11443345    -0.05700
C906        C  0.98284093  0.99517463  0.13854211    -0.33100
C907        C  0.01354106  0.00313497  0.13964096     0.36100
C908        C  0.03025618  0.00605603  0.11636460    -0.06100
C909        C  0.01531773  0.00127186  0.09247481    -0.33000
C910        C  0.98507967  0.99314454  0.09131802     0.36000
H911        H  0.97054458  0.99320397  0.15662820     0.16400
O912        O  0.02691384  0.00665988  0.16354664    -0.60500
H913        H  0.02716776  0.00328663  0.07415373     0.16400
O914        O  0.97249075  0.98794781  0.06713634    -0.60600
H915        H  0.97328994  0.95155544  0.06325357     0.43400
H916        H  0.02530470  0.04246065  0.16854868     0.43300
C917        C  0.87346392  0.62020660  0.12073062    -0.05700
C918        C  0.88112675  0.65171660  0.09972515    -0.33100
C919        C  0.88054429  0.70394934  0.10223468     0.36100
C920        C  0.87219810  0.72607825  0.12614601    -0.06100
C921        C  0.86388801  0.69453131  0.14691438    -0.33000
C922        C  0.86420544  0.64238140  0.14429916     0.36000
H923        H  0.88817126  0.63594054  0.08124892     0.16400
O924        O  0.88825249  0.73272437  0.08114220    -0.60500
H925        H  0.85678024  0.71022154  0.16538944     0.16400
O926        O  0.85528243  0.61363771  0.16497426    -0.60600
H927        H  0.83384840  0.60910282  0.16254467     0.43400
H928        H  0.90979442  0.73732208  0.08258054     0.43300
C929        C  0.86825394  0.12087953  0.11889620    -0.05700
C930        C  0.87575929  0.15242695  0.09790136    -0.33100
C931        C  0.87472666  0.20456545  0.10036467     0.36100
C932        C  0.86593457  0.22651942  0.12418711    -0.06100
C933        C  0.85685295  0.19490208  0.14469076    -0.33000
C934        C  0.85783261  0.14271926  0.14216975     0.36000
H935        H  0.88333622  0.13677864  0.07956032     0.16400
O936        O  0.88236918  0.23346878  0.07929303    -0.60500
H937        H  0.84942341  0.21053365  0.16307746     0.16400
O938        O  0.84882840  0.11362676  0.16272458    -0.60600
H939        H  0.82786288  0.10618216  0.15922353     0.43400
H940        H  0.90410623  0.23540250  0.07971942     0.43300
C941        C  0.03171965  0.49955193  0.11752549    -0.05700
C942        C  0.01821261  0.47094267  0.09778442    -0.33100
C943        C  0.98795139  0.46286865  0.09761136     0.36100
C944        C  0.97016056  0.48343018  0.11738635    -0.06100
C945        C  0.98347991  0.51045809  0.13776543    -0.33000
C946        C  0.01400088  0.51894095  0.13785167     0.36000
H947        H  0.03114969  0.45461376  0.08218065     0.16400
O948        O  0.97590019  0.43505902  0.07775766    -0.60500
H949        H  0.97007440  0.52676622  0.15306009     0.16400
O950        O  0.02604133  0.54720834  0.15749771    -0.60600
H951        H  0.02491504  0.58231094  0.15126979     0.43400
H952        H  0.97523101  0.40022762  0.08443557     0.43300
C953        C  0.96887935  0.49645289  0.38915199    -0.05700
C954        C  0.98417678  0.49323987  0.36527304    -0.33100
C955        C  0.01487473  0.48708612  0.36460494     0.36100
C956        C  0.03100791  0.48367397  0.38810324    -0.06100
C957        C  0.01562752  0.48710769  0.41185689    -0.33000
C958        C  0.98521885  0.49367840  0.41257501     0.36000
H959        H  0.97232492  0.49523132  0.34697886     0.16400
O960        O  0.02874217  0.48463560  0.34085688    -0.60500
H961        H  0.02721434  0.48479699  0.43027834     0.16400
O962        O  0.97182010  0.49720594  0.43651711    -0.79800
H963        H  0.97241380  0.53333207  0.44105580     0.43400
H964        H  0.03426115  0.51968695  0.33672443     0.43300
C965        C  0.88648798  0.47303976  0.22493594    -0.05700
C966        C  0.89214484  0.44035638  0.24592324    -0.33100
C967        C  0.89213857  0.45755660  0.27188607     0.36100
C968        C  0.88551680  0.50801942  0.27739897    -0.06100
C969        C  0.88114370  0.54104432  0.25632523    -0.33000
C970        C  0.88178861  0.52407372  0.23038496     0.36000
H971        H  0.89596658  0.40092232  0.24221287     0.16400
O972        O  0.89673109  0.42400298  0.29169198    -0.60500
H973        H  0.87647285  0.58023202  0.25997834     0.16400
O974        O  0.87616430  0.55726578  0.21064401    -0.60600
H975        H  0.85447869  0.55773224  0.20898478     0.43400
H976        H  0.91829054  0.42357456  0.29433028     0.43300
C977        C  0.87693165  0.86288170  0.37775431    -0.05700
C978        C  0.87361407  0.83195811  0.39983965    -0.33100
C979        C  0.87329878  0.77976393  0.39758669     0.36100
C980        C  0.87611668  0.75710069  0.37282456    -0.06100
C981        C  0.87936078  0.78801685  0.35075381    -0.33000
C982        C  0.87967211  0.84017160  0.35300031     0.36000
H983        H  0.87127291  0.84814734  0.41914262     0.16400
O984        O  0.86944369  0.75158153  0.41970251    -0.60500
H985        H  0.88167920  0.77184903  0.33144320     0.16400
O986        O  0.88346713  0.86828526  0.33086159    -0.60600
H987        H  0.86362418  0.87118865  0.32306332     0.43400
H988        H  0.88942302  0.74700105  0.42698647     0.43300
C989        C  0.86834212  0.25723829  0.37364746    -0.05700
C990        C  0.86331996  0.28936765  0.35233034    -0.33100
C991        C  0.86436712  0.34140652  0.35518975     0.36100
C992        C  0.87074603  0.36275974  0.37972774    -0.06100
C993        C  0.87489767  0.33069739  0.40122435    -0.33000
C994        C  0.87385661  0.27860839  0.39837126     0.36000
H995        H  0.85856540  0.27424804  0.33314882     0.16400
O996        O  0.85937288  0.37081013  0.33372258    -0.60500
H997        H  0.87969790  0.34588699  0.42038210     0.16400
O998        O  0.87853360  0.24921588  0.41991009    -0.60600
H999        H  0.90009770  0.24438489  0.42069519     0.43400
H1000       H  0.83782585  0.37599971  0.33332423     0.43300
C1001       C  0.97011792  0.00347029  0.38539130    -0.05700
C1002       C  0.98564930  0.00499504  0.40908520    -0.33100
C1003       C  0.01598521  0.99744073  0.41015433     0.36100
C1004       C  0.03226490  0.98751300  0.38713464    -0.06100
C1005       C  0.01690882  0.98683884  0.36319836    -0.33000
C1006       C  0.98622202  0.99464688  0.36220202     0.36000
H1007       H  0.97418052  0.01180569  0.42729548     0.16400
O1008       O  0.02924044  0.99881286  0.43418816    -0.60500
H1009       H  0.02866093  0.98004010  0.34513986     0.16400
O1010       O  0.97229040  0.99284629  0.33850032    -0.60600
H1011       H  0.96649809  0.95730123  0.33615273     0.43400
H1012       H  0.03314807  0.03478632  0.43763612     0.43300
C1013       C  0.87938181  0.97550467  0.22307861    -0.05700
C1014       C  0.87795214  0.02699428  0.22832389    -0.33100
C1015       C  0.87766854  0.04485788  0.25418764     0.36100
C1016       C  0.87993305  0.01128325  0.27546870    -0.06100
C1017       C  0.88284567  0.95995479  0.27013445    -0.33000
C1018       C  0.88220333  0.94198999  0.24429902     0.36000
H1019       H  0.87580688  0.05336656  0.21238171     0.16400
O1020       O  0.87546347  0.09546283  0.25847373    -0.60500
H1021       H  0.88447712  0.93348024  0.28606029     0.16400
O1022       O  0.88391599  0.89133710  0.24002098    -0.60600
H1023       H  0.90482348  0.88483537  0.23581475     0.43400
H1024       H  0.85430695  0.10331083  0.25648341     0.43300
C1025       C  0.72065741  0.62273277  0.36116674    -0.05700
C1026       C  0.73634625  0.61518341  0.33784777    -0.33100
C1027       C  0.76688058  0.61138699  0.33764895     0.36100
C1028       C  0.78298424  0.61561937  0.36113464    -0.06100
C1029       C  0.76743466  0.62368251  0.38455290    -0.33000
C1030       C  0.73663419  0.62753074  0.38470171     0.36000
H1031       H  0.72491292  0.61121187  0.31942197     0.16400
O1032       O  0.78062360  0.60325193  0.31416682    -0.60500
H1033       H  0.77917355  0.62763569  0.40282794     0.16400
O1034       O  0.72253382  0.63583830  0.40798353    -0.60600
H1035       H  0.72040295  0.67273780  0.40924748     0.43400
H1036       H  0.78122887  0.56631917  0.31209026     0.43300
C1037       C  0.63102312  0.86812335  0.37702470    -0.05700
C1038       C  0.62005631  0.88890880  0.35385677    -0.33100
C1039       C  0.61792736  0.94078266  0.35076155     0.36100
C1040       C  0.62691423  0.97324163  0.37104602    -0.06100
C1041       C  0.63827799  0.95263683  0.39407263    -0.33000
C1042       C  0.64066731  0.90070918  0.39707537     0.36000
H1043       H  0.61211942  0.86490077  0.33834372     0.16400
O1044       O  0.60653664  0.95925788  0.32794094    -0.60500
H1045       H  0.64593871  0.97689955  0.40963314     0.16400
O1046       O  0.65242383  0.88238000  0.41976717    -0.60600
H1047       H  0.67355494  0.87727923  0.41592449     0.43400
H1048       H  0.58505091  0.96116298  0.33091331     0.43300
C1049       C  0.62660480  0.36792740  0.37969954    -0.05700
C1050       C  0.63229217  0.38767134  0.35483732    -0.33100
C1051       C  0.63432851  0.43939707  0.35083076     0.36100
C1052       C  0.63076341  0.47314636  0.37199904    -0.06100
C1053       C  0.62554280  0.45337264  0.39695136    -0.33000
C1054       C  0.62359703  0.40160446  0.40096066     0.36000
H1055       H  0.63503446  0.36295338  0.33823019     0.16400
O1056       O  0.63983911  0.45623310  0.32601132    -0.60500
H1057       H  0.62276336  0.47809947  0.41357271     0.16400
O1058       O  0.61778976  0.38471052  0.42571430    -0.60600
H1059       H  0.63713675  0.38355115  0.43455557     0.43400
H1060       H  0.62034703  0.45801746  0.31745703     0.43300
C1061       C  0.71619304  0.11734084  0.36263990    -0.05700
C1062       C  0.73187979  0.11409639  0.33908430    -0.33100
C1063       C  0.76238268  0.11021522  0.33864780     0.36100
C1064       C  0.77857721  0.10941676  0.36219712    -0.06100
C1065       C  0.76299999  0.11199053  0.38595770    -0.33000
C1066       C  0.73215475  0.11606175  0.38633507     0.36000
H1067       H  0.72050614  0.11434692  0.32052101     0.16400
O1068       O  0.77598114  0.10613138  0.31481662    -0.60500
H1069       H  0.77473852  0.11153606  0.40434082     0.16400
O1070       O  0.71798695  0.11791121  0.40996690    -0.60600
H1071       H  0.71686860  0.15401258  0.41446395     0.43400
H1072       H  0.77737750  0.14089259  0.30810867     0.43300
C1073       C  0.71842788  0.85562633  0.13393515    -0.05700
C1074       C  0.73323721  0.87813923  0.11283520    -0.33100
C1075       C  0.76404102  0.88305527  0.11288669     0.36100
C1076       C  0.78059201  0.86515695  0.13424898    -0.06100
C1077       C  0.76571381  0.84090141  0.15469041    -0.33000
C1078       C  0.73523040  0.83575114  0.15459875     0.36000
H1079       H  0.72086790  0.89370825  0.09672594     0.16400
O1080       O  0.77753383  0.90650682  0.09230775    -0.60500
H1081       H  0.77778964  0.82554194  0.17103225     0.16400
O1082       O  0.72209158  0.81164397  0.17516863    -0.60600
H1083       H  0.71931220  0.77659854  0.16919253     0.43400
H1084       H  0.77865256  0.94232608  0.09739282     0.43300
C1085       C  0.61651186  0.76320362  0.22376784    -0.05700
C1086       C  0.62138290  0.79502557  0.24535697    -0.33100
C1087       C  0.62174412  0.77639039  0.27093572     0.36100
C1088       C  0.61785237  0.72489808  0.27540686    -0.06100
C1089       C  0.61238959  0.69314576  0.25398048    -0.33000
C1090       C  0.61121598  0.71197596  0.22841529     0.36000
H1091       H  0.62544587  0.83460852  0.24239402     0.16400
O1092       O  0.62792163  0.80828672  0.29121600    -0.60500
H1093       H  0.60937552  0.65332093  0.25705918     0.16400
O1094       O  0.60673149  0.67940453  0.20807651    -0.60600
H1095       H  0.58510965  0.67703549  0.20621786     0.43400
H1096       H  0.60875651  0.82319542  0.29608629     0.43300
C1097       C  0.62796041  0.51002750  0.13131512    -0.05700
C1098       C  0.63172333  0.53041300  0.10631307    -0.33100
C1099       C  0.63137945  0.58216627  0.10227389     0.36100
C1100       C  0.62651547  0.61546755  0.12341142    -0.06100
C1101       C  0.62347340  0.59521329  0.14857915    -0.33000
C1102       C  0.62421657  0.54327706  0.15267418     0.36000
H1103       H  0.63527856  0.50616079  0.08962017     0.16400
O1104       O  0.63561470  0.59945536  0.07735197    -0.60500
H1105       H  0.62005512  0.61960062  0.16522308     0.16400
O1106       O  0.62130898  0.52574043  0.17770810    -0.60600
H1107       H  0.59985686  0.52284616  0.18065683     0.43400
H1108       H  0.65713944  0.60406044  0.07565447     0.43300
C1109       C  0.63112012  0.11537985  0.11906986    -0.05700
C1110       C  0.62610351  0.08404497  0.09734889    -0.33100
C1111       C  0.62679606  0.03183358  0.09968372     0.36100
C1112       C  0.63271363  0.00972563  0.12409826    -0.06100
C1113       C  0.63886099  0.04117049  0.14553252    -0.33000
C1114       C  0.63830151  0.09324255  0.14315949     0.36000
H1115       H  0.62091610  0.09990543  0.07845697     0.16400
O1116       O  0.62182594  0.00304588  0.07790663    -0.60500
H1117       H  0.64389608  0.02552202  0.16450343     0.16400
O1118       O  0.64456359  0.12194913  0.16467586    -0.60600
H1119       H  0.66620524  0.12598520  0.16454779     0.43400
H1120       H  0.60016602  0.00085851  0.07633314     0.43300
C1121       C  0.72063817  0.37124063  0.13918653    -0.05700
C1122       C  0.73629613  0.35933194  0.11627519    -0.33100
C1123       C  0.76706034  0.36387368  0.11513462     0.36100
C1124       C  0.78297463  0.38064569  0.13717555    -0.06100
C1125       C  0.76718191  0.39366844  0.15978769    -0.33000
C1126       C  0.73664431  0.38893777  0.16102338     0.36000
H1127       H  0.72472551  0.34580605  0.09918794     0.16400
O1128       O  0.78129239  0.34986483  0.09267933    -0.60500
H1129       H  0.77856788  0.40705422  0.17700906     0.16400
O1130       O  0.72275411  0.40276723  0.18370817    -0.60600
H1131       H  0.72445273  0.37336136  0.19542151     0.43400
H1132       H  0.78220857  0.38064650  0.08189788     0.43300
C1133       C  0.61911651  0.25874311  0.22394989    -0.05700
C1134       C  0.62624522  0.29085275  0.24493123    -0.33100
C1135       C  0.62437505  0.27468585  0.27094226     0.36100
C1136       C  0.61579083  0.22533356  0.27652805    -0.06100
C1137       C  0.60794841  0.19346536  0.25575732    -0.33000
C1138       C  0.60920580  0.20990879  0.22969053     0.36000
H1139       H  0.63375643  0.32867804  0.24117032     0.16400
O1140       O  0.63303173  0.30629613  0.29061339    -0.60500
H1141       H  0.60144806  0.15517217  0.25974715     0.16400
O1142       O  0.60164516  0.17741386  0.21003791    -0.60600
H1143       H  0.61858940  0.15438181  0.20826937     0.43400
H1144       H  0.61501128  0.32464413  0.29576120     0.43300
C1145       C  0.28259034  0.86700669  0.36290422    -0.05700
C1146       C  0.26712540  0.88518574  0.34112063    -0.33100
C1147       C  0.23648062  0.88782445  0.34090015     0.36100
C1148       C  0.21999730  0.87161944  0.36267399    -0.06100
C1149       C  0.23529031  0.85384020  0.38468983    -0.33000
C1150       C  0.26623811  0.85150566  0.38495354     0.36000
H1151       H  0.27883232  0.89813261  0.32398650     0.16400
O1152       O  0.22292791  0.90658211  0.31910469    -0.60500
H1153       H  0.22322839  0.84067656  0.40158406     0.16400
O1154       O  0.28009114  0.83229163  0.40647464    -0.60600
H1155       H  0.28130437  0.86051441  0.41905052     0.43400
H1156       H  0.22067984  0.94295931  0.32252669     0.43300
C1157       C  0.47356053  0.76073377  0.38484235    -0.05700
C1158       C  0.48778050  0.74288178  0.36228403    -0.33100
C1159       C  0.51822382  0.73349825  0.36220081     0.36100
C1160       C  0.53510337  0.74188645  0.38499720    -0.06100
C1161       C  0.52079356  0.76124860  0.40719428    -0.33000
C1162       C  0.49064748  0.77081908  0.40722737     0.36000
H1163       H  0.47512837  0.73458044  0.34490437     0.16400
O1164       O  0.53092971  0.71467104  0.33997275    -0.60500
H1165       H  0.53297208  0.76915193  0.42488728     0.16400
O1166       O  0.47806363  0.78966398  0.42953466    -0.60600
H1167       H  0.47862185  0.82657865  0.42744068     0.43400
H1168       H  0.53600759  0.74442993  0.32931470     0.43300
C1169       C  0.37295792  0.51559831  0.37358870    -0.05700
C1170       C  0.36364411  0.54754557  0.35333951    -0.33100
C1171       C  0.36586403  0.59966042  0.35565191     0.36100
C1172       C  0.37794016  0.62112459  0.37836263    -0.06100
C1173       C  0.38697321  0.58928413  0.39869533    -0.33000
C1174       C  0.38463248  0.53720840  0.39647610     0.36000
H1175       H  0.35432084  0.53219845  0.33558862     0.16400
O1176       O  0.35569728  0.62910818  0.33572981    -0.60500
H1177       H  0.39632640  0.60472974  0.41641184     0.16400
O1178       O  0.39409991  0.50800461  0.41678987    -0.60600
H1179       H  0.41507226  0.50111860  0.41302126     0.43400
H1180       H  0.33506127  0.63689569  0.34038127     0.43300
C1181       C  0.37062840  0.12071145  0.37948654    -0.05700
C1182       C  0.37936894  0.09996250  0.35552610    -0.33100
C1183       C  0.38031133  0.04813276  0.35183996     0.36100
C1184       C  0.37217267  0.01544775  0.37228692    -0.06100
C1185       C  0.36314222  0.03605574  0.39621744    -0.33000
C1186       C  0.36208418  0.08804503  0.39987067     0.36000
H1187       H  0.38638519  0.12393174  0.33967923     0.16400
O1188       O  0.38971021  0.02996098  0.32819317    -0.60500
H1189       H  0.35639565  0.01181761  0.41208104     0.16400
O1190       O  0.35272433  0.10629277  0.42351157    -0.60600
H1191       H  0.33121268  0.11062166  0.42161967     0.43400
H1192       H  0.41139478  0.02820874  0.32960919     0.43300
C1193       C  0.28110100  0.36754923  0.36152262    -0.05700
C1194       C  0.26571320  0.36830509  0.38540857    -0.33100
C1195       C  0.23484482  0.37062885  0.38614113     0.36100
C1196       C  0.21853223  0.37231675  0.36268608    -0.06100
C1197       C  0.23401134  0.37147338  0.33890553    -0.33000
C1198       C  0.26461579  0.36873927  0.33811817     0.36000
H1199       H  0.27760734  0.36728003  0.40370142     0.16400
O1200       O  0.22099539  0.37035291  0.40992595    -0.60500
H1201       H  0.22237932  0.37243831  0.32047542     0.16400
O1202       O  0.27802220  0.36782385  0.31411519    -0.60600
H1203       H  0.27884803  0.33191610  0.30914813     0.43400
H1204       H  0.21961025  0.40606998  0.41514208     0.43300
C1205       C  0.46708647  0.25210673  0.38797817    -0.05700
C1206       C  0.48138809  0.23910429  0.36453219    -0.33100
C1207       C  0.51191790  0.23070801  0.36383051     0.36100
C1208       C  0.52881773  0.23537410  0.38686192    -0.06100
C1209       C  0.51427107  0.24857448  0.41016314    -0.33000
C1210       C  0.48405799  0.25703195  0.41085429     0.36000
H1211       H  0.46881015  0.23457259  0.34673958     0.16400
O1212       O  0.52475888  0.21710735  0.34064960    -0.60500
H1213       H  0.52635394  0.25285550  0.42823483     0.16400
O1214       O  0.47143130  0.27034982  0.43419622    -0.60600
H1215       H  0.47100403  0.30749554  0.43412502     0.43400
H1216       H  0.52861714  0.24903743  0.33138938     0.43300
C1217       C  0.28165887  0.62693975  0.13829708    -0.05700
C1218       C  0.26642976  0.60517277  0.11717648    -0.33100
C1219       C  0.23557722  0.60133169  0.11735187     0.36100
C1220       C  0.21931261  0.61976247  0.13879677    -0.06100
C1221       C  0.23455837  0.64268595  0.15945111    -0.33000
C1222       C  0.26517094  0.64632579  0.15939135     0.36000
H1223       H  0.27849159  0.58971561  0.10079909     0.16400
O1224       O  0.22171228  0.57854929  0.09674581    -0.60500
H1225       H  0.22266327  0.65832764  0.17588734     0.16400
O1226       O  0.27866659  0.67013223  0.17990353    -0.60600
H1227       H  0.27894197  0.64526542  0.19427025     0.43400
H1228       H  0.21973992  0.54289176  0.10186885     0.43300
C1229       C  0.46682394  0.73988411  0.11271366    -0.05700
C1230       C  0.48163352  0.74942026  0.13634849    -0.33100
C1231       C  0.51233184  0.75634304  0.13698139     0.36100
C1232       C  0.52906345  0.75260615  0.11377951    -0.06100
C1233       C  0.51404936  0.74347252  0.09022915    -0.33000
C1234       C  0.48356338  0.73756819  0.08948660     0.36000
H1235       H  0.46935305  0.75210266  0.15442307     0.16400
O1236       O  0.52566632  0.76567648  0.16047830    -0.60500
H1237       H  0.52596680  0.74061030  0.07196849     0.16400
O1238       O  0.47056930  0.72767986  0.06586304    -0.60600
H1239       H  0.46864065  0.76071719  0.05719925     0.43400
H1240       H  0.52467544  0.80254282  0.16275360     0.43300
C1241       C  0.38460091  0.72732022  0.22382244    -0.05700
C1242       C  0.38979469  0.69570774  0.24528353    -0.33100
C1243       C  0.38986942  0.71432666  0.27097704     0.36100
C1244       C  0.38430128  0.76541819  0.27573880    -0.06100
C1245       C  0.37988619  0.79730372  0.25417615    -0.33000
C1246       C  0.38019190  0.77875708  0.22846905     0.36000
H1247       H  0.39324185  0.65598151  0.24216882     0.16400
O1248       O  0.39426378  0.68187486  0.29131416    -0.60500
H1249       H  0.37572233  0.83682712  0.25727819     0.16400
O1250       O  0.37493553  0.81092009  0.20816839    -0.60600
H1251       H  0.35338862  0.80990940  0.20546611     0.43400
H1252       H  0.37626406  0.66103455  0.29202159     0.43300
C1253       C  0.36877053  0.97461430  0.12924664    -0.05700
C1254       C  0.36488427  0.95441847  0.10417339    -0.33100
C1255       C  0.36387598  0.90254175  0.10022804     0.36100
C1256       C  0.36764053  0.86937812  0.12152709    -0.06100
C1257       C  0.37045807  0.88972973  0.14669308    -0.33000
C1258       C  0.37095722  0.94152013  0.15069023     0.36000
H1259       H  0.36237855  0.97892322  0.08748122     0.16400
O1260       O  0.35964570  0.88497174  0.07532822    -0.60500
H1261       H  0.37309008  0.86549618  0.16343921     0.16400
O1262       O  0.37407648  0.95914437  0.17571753    -0.60600
H1263       H  0.39555462  0.96193490  0.17850004     0.43400
H1264       H  0.33811142  0.88051102  0.07365391     0.43300
C1265       C  0.37417033  0.36910640  0.12134520    -0.05700
C1266       C  0.38080544  0.40058260  0.10007956    -0.33100
C1267       C  0.37926897  0.45282197  0.10234094     0.36100
C1268       C  0.37070036  0.47498414  0.12620648    -0.06100
C1269       C  0.36348537  0.44337927  0.14726998    -0.33000
C1270       C  0.36499065  0.39121557  0.14495160     0.36000
H1271       H  0.38777297  0.38477850  0.08158521     0.16400
O1272       O  0.38607301  0.48157775  0.08099562    -0.60500
H1273       H  0.35664394  0.45900584  0.16583740     0.16400
O1274       O  0.35724144  0.36234189  0.16593844    -0.60600
H1275       H  0.33590865  0.35608878  0.16388636     0.43400
H1276       H  0.40777046  0.48465779  0.08116630     0.43300
C1277       C  0.21978555  0.11262696  0.14024502    -0.05700
C1278       C  0.23508698  0.11481029  0.11631758    -0.33100
C1279       C  0.26597128  0.11856261  0.11556466     0.36100
C1280       C  0.28225443  0.12121373  0.13903102    -0.06100
C1281       C  0.26684894  0.11829914  0.16278318    -0.33000
C1282       C  0.23637504  0.11352077  0.16359595     0.36000
H1283       H  0.22311341  0.11400936  0.09806093     0.16400
O1284       O  0.27980694  0.12031216  0.09178932    -0.60500
H1285       H  0.27844321  0.11933738  0.18123281     0.16400
O1286       O  0.22315961  0.11085998  0.18764288    -0.60600
H1287       H  0.22314740  0.07475479  0.19218341     0.43400
H1288       H  0.28273999  0.08480489  0.08668437     0.43300
C1289       C  0.47119664  0.22944329  0.11487223    -0.05700
C1290       C  0.48608497  0.24387271  0.13772674    -0.33100
C1291       C  0.51675627  0.25084365  0.13774357     0.36100
C1292       C  0.53317704  0.24403508  0.11451004    -0.06100
C1293       C  0.51820205  0.22746591  0.09204966    -0.33000
C1294       C  0.48784356  0.21977897  0.09214497     0.36000
H1295       H  0.47385114  0.25100162  0.15550140     0.16400
O1296       O  0.53020614  0.26539595  0.16046278    -0.60500
H1297       H  0.53002921  0.22028444  0.07406730     0.16400
O1298       O  0.47468234  0.20286489  0.06969527    -0.60600
H1299       H  0.47232845  0.16623082  0.07215997     0.43400
H1300       H  0.53532139  0.23374812  0.16948865     0.43300
C1301       C  0.38601765  0.22591502  0.22548361    -0.05700
C1302       C  0.38333679  0.19341362  0.24704748    -0.33100
C1303       C  0.38350502  0.21165357  0.27278345     0.36100
C1304       C  0.38555818  0.26344868  0.27747490    -0.06100
C1305       C  0.38958226  0.29575838  0.25607523    -0.33000
C1306       C  0.39014495  0.27738947  0.23030891     0.36000
H1307       H  0.38047166  0.15354581  0.24394040     0.16400
O1308       O  0.37953636  0.17885503  0.29304878    -0.60500
H1309       H  0.39162729  0.33574135  0.25930284     0.16400
O1310       O  0.39344312  0.31032415  0.21001328    -0.60600
H1311       H  0.37510899  0.33026920  0.20984681     0.43400
H1312       H  0.39937684  0.16546760  0.29682283     0.43300
C1313       C  0.12673982  0.87268925  0.52879103    -0.05700
C1314       C  0.15363451  0.87459706  0.51528400    -0.33100
C1315       C  0.15427973  0.87420941  0.48772202     0.36100
C1316       C  0.12782270  0.87155847  0.47348845    -0.06100
C1317       C  0.10146034  0.86413828  0.48712680    -0.33000
C1318       C  0.10077740  0.86457112  0.51444818     0.36000
H1319       H  0.17382994  0.88092523  0.52594724     0.16400
O1320       O  0.18048981  0.88099741  0.47500527    -0.60500
H1321       H  0.08093766  0.86135200  0.47653233     0.16400
O1322       O  0.07434353  0.85928934  0.52705504    -0.60600
H1323       H  0.06420177  0.89190462  0.52498211     0.43400
H1324       H  0.18287336  0.91781058  0.47347467     0.43300
C1325       C  0.12661623  0.37595645  0.52950949    -0.05700
C1326       C  0.10026077  0.36904065  0.51580303    -0.33100
C1327       C  0.09976784  0.36785212  0.48847003     0.36100
C1328       C  0.12597187  0.37329388  0.47407722    -0.06100
C1329       C  0.15275557  0.37525809  0.48772042    -0.33000
C1330       C  0.15318928  0.37690533  0.51530970     0.36000
H1331       H  0.07961032  0.36784358  0.52632277     0.16400
O1332       O  0.07329859  0.36354623  0.47587170    -0.60500
H1333       H  0.17311389  0.37998335  0.47704682     0.16400
O1334       O  0.17937204  0.38381601  0.52800674    -0.60600
H1335       H  0.18282669  0.42050418  0.52777993     0.43400
H1336       H  0.06394825  0.39697731  0.47737274     0.43300
C1337       C  0.12669531  0.62139068  0.62516396    -0.05700
C1338       C  0.13446774  0.65180759  0.60379903    -0.33100
C1339       C  0.13545102  0.70404196  0.60608147     0.36100
C1340       C  0.12857421  0.72711933  0.63009563    -0.06100
C1341       C  0.12158301  0.69663085  0.65162335    -0.33000
C1342       C  0.12079785  0.64445810  0.64940153     0.36000
H1343       H  0.13971993  0.63513704  0.58506468     0.16400
O1344       O  0.14405944  0.73188859  0.58491997    -0.60500
H1345       H  0.11633638  0.71323117  0.67037717     0.16400
O1346       O  0.11307946  0.61673862  0.67086380    -0.60600
H1347       H  0.13157618  0.61202201  0.68075420     0.43400
H1348       H  0.12634268  0.73467756  0.57378367     0.43300
C1349       C  0.12217602  0.22651292  0.63016274    -0.05700
C1350       C  0.11900128  0.20672165  0.60490683    -0.33100
C1351       C  0.11811273  0.15492074  0.60066035     0.36100
C1352       C  0.12017842  0.12134682  0.62196916    -0.06100
C1353       C  0.12339373  0.14120173  0.64718447    -0.33000
C1354       C  0.12437602  0.19285742  0.65143007     0.36000
H1355       H  0.11729531  0.23142846  0.58821978     0.16400
O1356       O  0.11479080  0.13786420  0.57555310    -0.60500
H1357       H  0.12521042  0.11663371  0.66391462     0.16400
O1358       O  0.12826120  0.20967421  0.67652368    -0.60600
H1359       H  0.10834063  0.21000764  0.68435915     0.43400
H1360       H  0.13496700  0.13627868  0.56829919     0.43300
C1361       C  0.12669750  0.61460484  0.97453078    -0.05700
C1362       C  0.09987485  0.61763156  0.98796101    -0.33100
C1363       C  0.09888062  0.61789401  0.01525072     0.36100
C1364       C  0.12500440  0.61472296  0.02988471    -0.06100
C1365       C  0.15203348  0.61644038  0.01657863    -0.33000
C1366       C  0.15300123  0.61635214  0.98902343     0.36000
H1367       H  0.07939758  0.61664086  0.97721247     0.16400
O1368       O  0.07205210  0.61757415  0.02744775    -0.60500
H1369       H  0.17234822  0.61353446  0.02744282     0.16400
O1370       O  0.17957680  0.61206879  0.97664709    -0.60600
H1371       H  0.18570035  0.64695918  0.97286706     0.43400
H1372       H  0.06761228  0.65327339  0.03108072     0.43300
C1373       C  0.11779499  0.51644120  0.77743515    -0.05700
C1374       C  0.12307585  0.46536611  0.77331268    -0.33100
C1375       C  0.12324597  0.44519769  0.74799254     0.36100
C1376       C  0.11721809  0.47595274  0.72615419    -0.06100
C1377       C  0.11019565  0.52648448  0.73049379    -0.33000
C1378       C  0.11094951  0.54693974  0.75578503     0.36000
H1379       H  0.12833134  0.44136973  0.78966733     0.16400
O1380       O  0.12903228  0.39511156  0.74486026    -0.60500
H1381       H  0.10517246  0.55070513  0.71416678     0.16400
O1382       O  0.10456683  0.59673480  0.75921885    -0.60600
H1383       H  0.12272999  0.61489971  0.75425360     0.43400
H1384       H  0.15068482  0.39207902  0.74611282     0.43300
C1385       C  0.12912077  0.11746379  0.97397997    -0.05700
C1386       C  0.10277380  0.12452928  0.98773819    -0.33100
C1387       C  0.10199881  0.12297329  0.01505478     0.36100
C1388       C  0.12793295  0.11488190  0.02938920    -0.06100
C1389       C  0.15481177  0.11274792  0.01583275    -0.33000
C1390       C  0.15552827  0.11393091  0.98825450     0.36000
H1391       H  0.08225858  0.12775506  0.97717824     0.16400
O1392       O  0.07548422  0.12724988  0.02761964    -0.60500
H1393       H  0.17495333  0.10590897  0.02646608     0.16400
O1394       O  0.18161494  0.10582127  0.97557384    -0.60600
H1395       H  0.18974648  0.13969208  0.97228242     0.43400
H1396       H  0.06572241  0.09428750  0.02537580     0.43300
C1397       C  0.12841787  0.87132412  0.88262241    -0.05700
C1398       C  0.13689870  0.85100656  0.85853272    -0.33100
C1399       C  0.13923082  0.79924123  0.85500615     0.36100
C1400       C  0.13273971  0.76602350  0.87580707    -0.06100
C1401       C  0.12436386  0.78638753  0.89998209    -0.33000
C1402       C  0.12205650  0.83826560  0.90349302     0.36000
H1403       H  0.14185734  0.87533929  0.84220249     0.16400
O1404       O  0.14720873  0.78180633  0.83080716    -0.60500
H1405       H  0.11917827  0.76205399  0.91625785     0.16400
O1406       O  0.11311633  0.85595229  0.92738214    -0.60600
H1407       H  0.09141525  0.85797708  0.92626193     0.43400
H1408       H  0.16897924  0.78222618  0.83077059     0.43300
C1409       C  0.13391045  0.37130475  0.87885875    -0.05700
C1410       C  0.13608397  0.33997124  0.90090148    -0.33100
C1411       C  0.13688674  0.28777225  0.89842466     0.36100
C1412       C  0.13575452  0.26539864  0.87350668    -0.06100
C1413       C  0.13462604  0.29664423  0.85140483    -0.33000
C1414       C  0.13376317  0.34888583  0.85387037     0.36000
H1415       H  0.13669650  0.35578651  0.92038707     0.16400
O1416       O  0.13936316  0.25917676  0.92054168    -0.60500
H1417       H  0.13382773  0.28058532  0.83197207     0.16400
O1418       O  0.13183657  0.37730757  0.83166931    -0.60600
H1419       H  0.15241825  0.38260890  0.82596903     0.43400
H1420       H  0.11909555  0.25607997  0.92745095     0.43300
C1421       C  0.11624699  0.01239030  0.77757321    -0.05700
C1422       C  0.11044546  0.04471028  0.75647982    -0.33100
C1423       C  0.11010893  0.02712131  0.73058221     0.36100
C1424       C  0.11657134  0.97656249  0.72516845    -0.06100
C1425       C  0.12146320  0.94390660  0.74636666    -0.33000
C1426       C  0.12109184  0.96130632  0.77231841     0.36000
H1427       H  0.10675254  0.08422160  0.76007735     0.16400
O1428       O  0.10547141  0.06046219  0.71067975    -0.60500
H1429       H  0.12617580  0.90471585  0.74277514     0.16400
O1430       O  0.12689315  0.92851452  0.79223913    -0.60600
H1431       H  0.14847721  0.92981455  0.79466190     0.43400
H1432       H  0.08389217  0.06111335  0.70818849     0.43300
C1433       C  0.87476458  0.87159380  0.97108538    -0.05700
C1434       C  0.90132404  0.86894791  0.98488565    -0.33100
C1435       C  0.90182355  0.87041578  0.01213614     0.36100
C1436       C  0.87545409  0.87461601  0.02634443    -0.06100
C1437       C  0.84864005  0.87216386  0.01276188    -0.33000
C1438       C  0.84816936  0.87069818  0.98521728     0.36000
H1439       H  0.92202301  0.86913633  0.97442165     0.16400
O1440       O  0.92841735  0.87149617  0.02466664    -0.60500
H1441       H  0.82813647  0.87568822  0.02334193     0.16400
O1442       O  0.82182756  0.87428966  0.97244912    -0.60600
H1443       H  0.81614480  0.83925263  0.96843206     0.43400
H1444       H  0.93345315  0.83587240  0.02775938     0.43300
C1445       C  0.97085215  0.98202773  0.88528917    -0.05700
C1446       C  0.98614316  0.98122138  0.90908877    -0.33100
C1447       C  0.01615764  0.99146840  0.91045826     0.36100
C1448       C  0.03241168  0.00243006  0.88756217    -0.06100
C1449       C  0.01724485  0.00281797  0.86354115    -0.33000
C1450       C  0.98680022  0.99293711  0.86229595     0.36000
H1451       H  0.97469880  0.97291366  0.92713391     0.16400
O1452       O  0.02927905  0.98997861  0.93454685    -0.60500
H1453       H  0.02897612  0.01075693  0.84561036     0.16400
O1454       O  0.97293817  0.99468613  0.83856441    -0.60600
H1455       H  0.96563140  0.02952975  0.83696283     0.43400
H1456       H  0.02685489  0.02415618  0.94186786     0.43300
C1457       C  0.88038216  0.37313922  0.97221222    -0.05700
C1458       C  0.90677145  0.37318417  0.98631142    -0.33100
C1459       C  0.90679566  0.37351867  0.01361726     0.36100
C1460       C  0.88005937  0.37375659  0.02757054    -0.06100
C1461       C  0.85368163  0.36836253  0.01358129    -0.33000
C1462       C  0.85372864  0.36792719  0.98600711     0.36000
H1463       H  0.92755496  0.37621530  0.97609994     0.16400
O1464       O  0.93314988  0.37575086  0.02657058    -0.60500
H1465       H  0.83290948  0.36873258  0.02389630     0.16400
O1466       O  0.82752025  0.36808874  0.97289592    -0.60600
H1467       H  0.82184638  0.33232982  0.97141127     0.43400
H1468       H  0.94020666  0.41067305  0.02440245     0.43300
C1469       C  0.87115243  0.72169899  0.86977790    -0.05700
C1470       C  0.86383908  0.70084041  0.89407893    -0.33100
C1471       C  0.86439359  0.64892810  0.89792181     0.36100
C1472       C  0.87307822  0.61657839  0.87739509    -0.06100
C1473       C  0.87952246  0.63744186  0.85292380    -0.33000
C1474       C  0.87858489  0.68918830  0.84897499     0.36000
H1475       H  0.85738104  0.72481265  0.91018728     0.16400
O1476       O  0.85657732  0.63048707  0.92192816    -0.60500
H1477       H  0.88619281  0.61372112  0.83682821     0.16400
O1478       O  0.88552803  0.70742779  0.82471587    -0.60600
H1479       H  0.90714292  0.71185209  0.82487513     0.43400
H1480       H  0.83509162  0.62480175  0.92087948     0.43300
C1481       C  0.87856313  0.22190013  0.87107171    -0.05700
C1482       C  0.88101983  0.20171604  0.89625978    -0.33100
C1483       C  0.88061596  0.14987839  0.90029979     0.36100
C1484       C  0.87778443  0.11659069  0.87886224    -0.06100
C1485       C  0.87535556  0.13679753  0.85370637    -0.33000
C1486       C  0.87587950  0.18852980  0.84964198     0.36000
H1487       H  0.88315564  0.22614796  0.91307066     0.16400
O1488       O  0.88378860  0.13244793  0.92531645    -0.60500
H1489       H  0.87315569  0.11242956  0.83690065     0.16400
O1490       O  0.87334335  0.20573444  0.82452355    -0.60600
H1491       H  0.89365617  0.20609313  0.81753217     0.43400
H1492       H  0.86374150  0.13295300  0.93288699     0.43300
C1493       C  0.97290331  0.48588554  0.88614345    -0.05700
C1494       C  0.98767447  0.50082724  0.86329256    -0.33100
C1495       C  0.01824566  0.50918967  0.86331526     0.36100
C1496       C  0.03478855  0.50156791  0.88635508    -0.06100
C1497       C  0.01981104  0.48608102  0.90898949    -0.33000
C1498       C  0.98946490  0.47861698  0.90909582     0.36000
H1499       H  0.97540549  0.50718849  0.84549755     0.16400
O1500       O  0.03157731  0.52452170  0.84067668    -0.60500
H1501       H  0.03161774  0.47946060  0.92700128     0.16400
O1502       O  0.97635744  0.46243399  0.93170969    -0.60600
H1503       H  0.97439889  0.49275788  0.94280377     0.43400
H1504       H  0.03094021  0.56164622  0.84125031     0.43300
C1505       C  0.87441323  0.61625076  0.52849009    -0.05700
C1506       C  0.84753878  0.61798662  0.51498597    -0.33100
C1507       C  0.84690277  0.61572451  0.48743164     0.36100
C1508       C  0.87337798  0.61200433  0.47322818    -0.06100
C1509       C  0.90003520  0.61619705  0.48673737    -0.33000
C1510       C  0.90071925  0.61825394  0.51400818     0.36000
H1511       H  0.82707006  0.61650760  0.52574900     0.16400
O1512       O  0.82041689  0.61277446  0.47482402    -0.60500
H1513       H  0.92063374  0.61435704  0.47615925     0.16400
O1514       O  0.92737525  0.61979632  0.52647424    -0.60600
H1515       H  0.93557283  0.58551110  0.52484844     0.43400
H1516       H  0.81519768  0.57669760  0.47487747     0.43300
C1517       C  0.96748771  0.50153644  0.61537664    -0.05700
C1518       C  0.98197425  0.47850511  0.59421952    -0.33100
C1519       C  0.01236820  0.47114950  0.59422600     0.36100
C1520       C  0.02940822  0.48612044  0.61583281    -0.06100
C1521       C  0.01511554  0.50831576  0.63731957    -0.33000
C1522       C  0.98449324  0.51626598  0.63718668     0.36000
H1523       H  0.96972132  0.46587247  0.57732436     0.16400
O1524       O  0.02511955  0.44779581  0.57318254    -0.60500
H1525       H  0.02782270  0.52087419  0.65396550     0.16400
O1526       O  0.97172303  0.54012398  0.65803249    -0.60600
H1527       H  0.96792073  0.51340387  0.67103158     0.43400
H1528       H  0.02679107  0.47399911  0.55955260     0.43300
C1529       C  0.88292610  0.50971828  0.72379133    -0.05700
C1530       C  0.89069174  0.54112289  0.74476810    -0.33100
C1531       C  0.89211781  0.52277735  0.77044364     0.36100
C1532       C  0.88496367  0.47240022  0.77566421    -0.06100
C1533       C  0.87817766  0.44066326  0.75443468    -0.33000
C1534       C  0.87733661  0.45881870  0.72873520     0.36000
H1535       H  0.89524009  0.58039401  0.74126764     0.16400
O1536       O  0.89951973  0.55487125  0.79030777    -0.60500
H1537       H  0.87294386  0.40160418  0.75780628     0.16400
O1538       O  0.86984100  0.42694783  0.70877500    -0.60600
H1539       H  0.84813925  0.42875793  0.70760068     0.43400
H1540       H  0.88132297  0.57383832  0.79418223     0.43300
C1541       C  0.87073988  0.11223664  0.52821365    -0.05700
C1542       C  0.84407677  0.11119362  0.51436260    -0.33100
C1543       C  0.84394484  0.10955642  0.48678034     0.36100
C1544       C  0.87072421  0.10834228  0.47288198    -0.06100
C1545       C  0.89700100  0.11458471  0.48678688    -0.33000
C1546       C  0.89713499  0.11700576  0.51405586     0.36000
H1547       H  0.82353920  0.10737251  0.52486101     0.16400
O1548       O  0.81782848  0.10351431  0.47388406    -0.60500
H1549       H  0.91781177  0.11463163  0.47650560     0.16400
O1550       O  0.92353167  0.12011370  0.52682620    -0.60600
H1551       H  0.92794689  0.15644615  0.52785955     0.43400
H1552       H  0.81041888  0.13797468  0.47100540     0.43300
C1553       C  0.87008004  0.86912774  0.62254739    -0.05700
C1554       C  0.85833883  0.84906173  0.64560964    -0.33100
C1555       C  0.85584741  0.79708379  0.64899036     0.36100
C1556       C  0.86584595  0.76379230  0.62929422    -0.06100
C1557       C  0.87730292  0.78411037  0.60617418    -0.33000
C1558       C  0.87954393  0.83586507  0.60272107     0.36000
H1559       H  0.85069834  0.87373528  0.66099429     0.16400
O1560       O  0.84374075  0.77952512  0.67173829    -0.60500
H1561       H  0.88513236  0.75981295  0.59069855     0.16400
O1562       O  0.89161438  0.85333612  0.57993048    -0.60600
H1563       H  0.91287812  0.85702854  0.58360871     0.43400
H1564       H  0.82238972  0.77697007  0.66819756     0.43300
C1565       C  0.86594546  0.26446823  0.62714855    -0.05700
C1566       C  0.87652514  0.28406829  0.60351478    -0.33100
C1567       C  0.87867173  0.33585929  0.59963737     0.36100
C1568       C  0.86999439  0.36957018  0.61955825    -0.06100
C1569       C  0.85874711  0.35004581  0.64292318    -0.33000
C1570       C  0.85637155  0.29829491  0.64672971     0.36000
H1571       H  0.88386316  0.25920555  0.58809029     0.16400
O1572       O  0.88998350  0.35289491  0.57645572    -0.60500
H1573       H  0.85157251  0.37501700  0.65836282     0.16400
O1574       O  0.84472173  0.28144557  0.66981151    -0.60600
H1575       H  0.82334057  0.27830417  0.66655296     0.43400
H1576       H  0.91147366  0.35518328  0.57930911     0.43300
C1577       C  0.02763079  0.98008784  0.61581109    -0.05700
C1578       C  0.01386110  0.00275859  0.63743050    -0.33100
C1579       C  0.98344267  0.01268866  0.63737796     0.36100
C1580       C  0.96604661  0.99920309  0.61558620    -0.06100
C1581       C  0.97993880  0.97520045  0.59440871    -0.33000
C1582       C  0.01015320  0.96594223  0.59431360     0.36000
H1583       H  0.02687712  0.01451231  0.65404629     0.16400
O1584       O  0.97116059  0.03605515  0.65860026    -0.60500
H1585       H  0.96735394  0.96326996  0.57756968     0.16400
O1586       O  0.02229981  0.94180224  0.57322035    -0.60600
H1587       H  0.02385710  0.96759246  0.55936647     0.43400
H1588       H  0.97331210  0.07241130  0.65512371     0.43300
C1589       C  0.88086709  0.01378028  0.72448949    -0.05700
C1590       C  0.88288740  0.04592639  0.74623907    -0.33100
C1591       C  0.88399868  0.02682739  0.77174191     0.36100
C1592       C  0.88201414  0.97483660  0.77592907    -0.06100
C1593       C  0.88064483  0.94266852  0.75414791    -0.33000
C1594       C  0.88041902  0.96167970  0.72863034     0.36000
H1595       H  0.88329907  0.08615092  0.74345359     0.16400
O1596       O  0.88502489  0.05944755  0.79243343    -0.60500
H1597       H  0.87930801  0.90250437  0.75694691     0.16400
O1598       O  0.87852659  0.92905951  0.70796965    -0.60600
H1599       H  0.85720760  0.92481312  0.70474403     0.43400
H1600       H  0.90614218  0.06718826  0.79486122     0.43300
C1601       C  0.37547925  0.86346500  0.52804218    -0.05700
C1602       C  0.40241206  0.86511359  0.51472118    -0.33100
C1603       C  0.40355196  0.86638855  0.48745577     0.36100
C1604       C  0.37742784  0.86524744  0.47266509    -0.06100
C1605       C  0.35042508  0.86900432  0.48591852    -0.33000
C1606       C  0.34934927  0.86831706  0.51349611     0.36000
H1607       H  0.42280310  0.86218305  0.52549751     0.16400
O1608       O  0.43046729  0.86478379  0.47541882    -0.60500
H1609       H  0.33009219  0.86819414  0.47498121     0.16400
O1610       O  0.32263397  0.86667552  0.52579084    -0.60600
H1611       H  0.31761589  0.90215692  0.52939731     0.43400
H1612       H  0.43486287  0.89997364  0.47062470     0.43300
C1613       C  0.28128375  0.86343207  0.63920044    -0.05700
C1614       C  0.26609748  0.87351849  0.61582371    -0.33100
C1615       C  0.23525610  0.87804775  0.61542813     0.36100
C1616       C  0.21883259  0.87290921  0.63874891    -0.06100
C1617       C  0.23415605  0.86296525  0.66197719    -0.33000
C1618       C  0.26465216  0.85795964  0.66238434     0.36000
H1619       H  0.27813807  0.87842836  0.59775430     0.16400
O1620       O  0.22160578  0.88830868  0.59219727    -0.60500
H1621       H  0.22246987  0.85854683  0.68026305     0.16400
O1622       O  0.27785224  0.84845477  0.68592187    -0.60600
H1623       H  0.27805474  0.81143321  0.68750125     0.43400
H1624       H  0.21799419  0.85516982  0.58401524     0.43300
C1625       C  0.37227201  0.36424437  0.52968456    -0.05700
C1626       C  0.34556191  0.36490922  0.51586707    -0.33100
C1627       C  0.34526731  0.36526478  0.48823983     0.36100
C1628       C  0.37192655  0.36490857  0.47414313    -0.06100
C1629       C  0.39834265  0.36872585  0.48812631    -0.33000
C1630       C  0.39866830  0.36858292  0.51545344     0.36000
H1631       H  0.32503703  0.36092348  0.52636624     0.16400
O1632       O  0.31906307  0.36019048  0.47537780    -0.60500
H1633       H  0.41910199  0.36866044  0.47775867     0.16400
O1634       O  0.42521043  0.36891612  0.52808128    -0.60600
H1635       H  0.42830215  0.40422736  0.53347056     0.43400
H1636       H  0.31203830  0.39490676  0.47258749     0.43300
C1637       C  0.36765641  0.51224691  0.62891819    -0.05700
C1638       C  0.35360198  0.54416692  0.64699256    -0.33100
C1639       C  0.35473313  0.59639245  0.64426588     0.36100
C1640       C  0.36994277  0.61779274  0.62311910    -0.06100
C1641       C  0.38416075  0.58606313  0.60520111    -0.33000
C1642       C  0.38328195  0.53397807  0.60798598     0.36000
H1643       H  0.34157075  0.52870529  0.66336159     0.16400
O1644       O  0.34071404  0.62604040  0.66226566    -0.60500
H1645       H  0.39662866  0.60176178  0.58913847     0.16400
O1646       O  0.39886860  0.50496640  0.59072313    -0.60600
H1647       H  0.38594749  0.50113646  0.57527457     0.43400
H1648       H  0.32017082  0.62856039  0.65603026     0.43300
C1649       C  0.36664952  0.11817827  0.62164367    -0.05700
C1650       C  0.37605125  0.08752042  0.60081104    -0.33100
C1651       C  0.37636584  0.03527789  0.60298206     0.36100
C1652       C  0.36700229  0.01232258  0.62631591    -0.06100
C1653       C  0.35674433  0.04308010  0.64683549    -0.33000
C1654       C  0.35642977  0.09528644  0.64462187     0.36000
H1655       H  0.38399001  0.10406838  0.58283477     0.16400
O1656       O  0.38594400  0.00731826  0.58214913    -0.60500
H1657       H  0.34898905  0.02676027  0.66492212     0.16400
O1658       O  0.34610797  0.12338719  0.66510331    -0.60600
H1659       H  0.32501885  0.12887001  0.66128176     0.43400
H1660       H  0.40759397  0.00585354  0.58400358     0.43300
C1661       C  0.27900871  0.35868007  0.64044324    -0.05700
C1662       C  0.26325857  0.35483659  0.66398915    -0.33100
C1663       C  0.23262866  0.35766596  0.66464755     0.36100
C1664       C  0.21645209  0.36501478  0.64137251    -0.06100
C1665       C  0.23208132  0.36767001  0.61765345    -0.33000
C1666       C  0.26292680  0.36424139  0.61702170     0.36000
H1667       H  0.27470392  0.35027921  0.68236084     0.16400
O1668       O  0.21894543  0.35444143  0.68847077    -0.60500
H1669       H  0.22039958  0.37249274  0.59942181     0.16400
O1670       O  0.27700088  0.36738050  0.59340156    -0.60600
H1671       H  0.27834369  0.33236384  0.58700283     0.43400
H1672       H  0.21686429  0.31804552  0.69188641     0.43300
C1673       C  0.37699008  0.61775239  0.97288291    -0.05700
C1674       C  0.34998157  0.61367270  0.98608812    -0.33100
C1675       C  0.34892217  0.61461487  0.01361641     0.36100
C1676       C  0.37509153  0.62004728  0.02804931    -0.06100
C1677       C  0.40202334  0.61768849  0.01481878    -0.33000
C1678       C  0.40313209  0.61656257  0.98755483     0.36000
H1679       H  0.32964321  0.61435879  0.97515584     0.16400
O1680       O  0.32220401  0.61618022  0.02592973    -0.60500
H1681       H  0.42241007  0.62050566  0.02562212     0.16400
O1682       O  0.42996645  0.61686551  0.97531763    -0.60600
H1683       H  0.43761789  0.65144037  0.97744446     0.43400
H1684       H  0.31850290  0.58132909  0.03174633     0.43300
C1685       C  0.22101013  0.61528139  0.86431424    -0.05700
C1686       C  0.23627544  0.62798187  0.84140270    -0.33100
C1687       C  0.26684657  0.63020563  0.84074862     0.36100
C1688       C  0.28343431  0.61879653  0.86325932    -0.06100
C1689       C  0.26828463  0.60693122  0.88645854    -0.33000
C1690       C  0.23737645  0.60510338  0.88711111     0.36000
H1691       H  0.22444297  0.63702719  0.82368998     0.16400
O1692       O  0.28017076  0.64368969  0.81776571    -0.60500
H1693       H  0.28039791  0.59807304  0.90404168     0.16400
O1694       O  0.22355231  0.59280984  0.91002333    -0.60600
H1695       H  0.22090144  0.55595468  0.90929120     0.43400
H1696       H  0.28313989  0.68042064  0.81908731     0.43300
C1697       C  0.38303855  0.72086297  0.77641492    -0.05700
C1698       C  0.37843398  0.69002980  0.75439349    -0.33100
C1699       C  0.37871932  0.70962657  0.72897382     0.36100
C1700       C  0.38311850  0.76122949  0.72499082    -0.06100
C1701       C  0.38814804  0.79206555  0.74689375    -0.33000
C1702       C  0.38836843  0.77232339  0.77233554     0.36000
H1703       H  0.37422775  0.65036860  0.75686024     0.16400
O1704       O  0.37266226  0.67851289  0.70832733    -0.60500
H1705       H  0.39156070  0.83192300  0.74429905     0.16400
O1706       O  0.39289861  0.80404501  0.79303439    -0.60600
H1707       H  0.37306325  0.81582508  0.79814692     0.43400
H1708       H  0.39179052  0.66349950  0.70340831     0.43300
C1709       C  0.37751663  0.11838699  0.97414673    -0.05700
C1710       C  0.40388003  0.11533649  0.98820606    -0.33100
C1711       C  0.40398209  0.11626817  0.01546183     0.36100
C1712       C  0.37738942  0.12043279  0.02939499    -0.06100
C1713       C  0.35078677  0.11829167  0.01552678    -0.33000
C1714       C  0.35072300  0.11732100  0.98798533     0.36000
H1715       H  0.42471978  0.11565696  0.97796707     0.16400
O1716       O  0.43042023  0.11727585  0.02826608    -0.60500
H1717       H  0.33014738  0.12191410  0.02588636     0.16400
O1718       O  0.32457630  0.12139835  0.97495266    -0.60600
H1719       H  0.31848502  0.08643268  0.97126033     0.43400
H1720       H  0.43432523  0.08198483  0.03314804     0.43300
C1721       C  0.37344215  0.86341776  0.87883158    -0.05700
C1722       C  0.38323424  0.88487667  0.85540549    -0.33100
C1723       C  0.38397698  0.93686438  0.85217271     0.36100
C1724       C  0.37472198  0.96894917  0.87257992    -0.06100
C1725       C  0.36449327  0.94753804  0.89590709    -0.33000
C1726       C  0.36350526  0.89542005  0.89904404     0.36000
H1727       H  0.39125159  0.86134761  0.83970443     0.16400
O1728       O  0.39425654  0.95578547  0.82901512    -0.60500
H1729       H  0.35670111  0.97124298  0.91165128     0.16400
O1730       O  0.35270256  0.87633396  0.92197911    -0.60600
H1731       H  0.33173713  0.86895518  0.91843863     0.43400
H1732       H  0.41566586  0.96025538  0.83163054     0.43300
C1733       C  0.37731458  0.36366493  0.88236396    -0.05700
C1734       C  0.36851923  0.38278219  0.85813481    -0.33100
C1735       C  0.36663246  0.43433436  0.85386213     0.36100
C1736       C  0.37382457  0.46851492  0.87404149    -0.06100
C1737       C  0.38216322  0.44937683  0.89847172    -0.33000
C1738       C  0.38408168  0.39769445  0.90271254     0.36000
H1739       H  0.36295390  0.35764441  0.84227870     0.16400
O1740       O  0.35801916  0.45058688  0.82966589    -0.60500
H1741       H  0.38771252  0.47450496  0.91436041     0.16400
O1742       O  0.39305608  0.38114349  0.92675666    -0.60600
H1743       H  0.41477702  0.37960647  0.92568556     0.43400
H1744       H  0.33625879  0.45090633  0.83026220     0.43300
C1745       C  0.22148579  0.10970319  0.86291909    -0.05700
C1746       C  0.23655985  0.12725450  0.88514133    -0.33100
C1747       C  0.26743595  0.12999301  0.88563070     0.36100
C1748       C  0.28404334  0.11450783  0.86372963    -0.06100
C1749       C  0.26886729  0.09619434  0.84175831    -0.33000
C1750       C  0.23820393  0.09356453  0.84122004     0.36000
H1751       H  0.22436907  0.14024208  0.90201671     0.16400
O1752       O  0.28098795  0.14852400  0.90751020    -0.60500
H1753       H  0.28080640  0.08342050  0.82469455     0.16400
O1754       O  0.22490019  0.07530555  0.81913881    -0.60600
H1755       H  0.22280212  0.03878482  0.82213796     0.43400
H1756       H  0.28257698  0.18513553  0.90455627     0.43300
C1757       C  0.38385919  0.22276321  0.77863648    -0.05700
C1758       C  0.38112995  0.19064157  0.75690216    -0.33100
C1759       C  0.38082870  0.20934950  0.73126946     0.36100
C1760       C  0.38244397  0.26133834  0.72681451    -0.06100
C1761       C  0.38593979  0.29339063  0.74854361    -0.33000
C1762       C  0.38689507  0.27454154  0.77416900     0.36000
H1763       H  0.37882693  0.15063476  0.75981111     0.16400
O1764       O  0.37701136  0.17664053  0.71088205    -0.60500
H1765       H  0.38743307  0.33351945  0.74569861     0.16400
O1766       O  0.38954853  0.30730169  0.79469554    -0.60600
H1767       H  0.36926963  0.31875743  0.79841888     0.43400
H1768       H  0.39705395  0.16525468  0.70619680     0.43300
C1769       C  0.62652368  0.61952893  0.52633502    -0.05700
C1770       C  0.60059970  0.61367139  0.51185863    -0.33100
C1771       C  0.60106532  0.61422228  0.48459057     0.36100
C1772       C  0.62772795  0.62112249  0.47113262    -0.06100
C1773       C  0.65409231  0.62137293  0.48541740    -0.33000
C1774       C  0.65361646  0.62040489  0.51295989     0.36000
H1775       H  0.57957565  0.61233587  0.52176925     0.16400
O1776       O  0.57496345  0.61236874  0.47128719    -0.60500
H1777       H  0.67479831  0.62687952  0.47539400     0.16400
O1778       O  0.67935486  0.62651372  0.52644416    -0.60600
H1779       H  0.68534117  0.59220646  0.53155337     0.43400
H1780       H  0.57356679  0.57761881  0.46451494     0.43300
C1781       C  0.71618100  0.61306171  0.63740352    -0.05700
C1782       C  0.73214521  0.62645287  0.61488552    -0.33100
C1783       C  0.76305016  0.62426006  0.61443207     0.36100
C1784       C  0.77871877  0.60879784  0.63684538    -0.06100
C1785       C  0.76263472  0.59429680  0.65899183    -0.33000
C1786       C  0.73201181  0.59594636  0.65941240     0.36000
H1787       H  0.72071242  0.63934428  0.59762591     0.16400
O1788       O  0.77760400  0.63935485  0.59234930    -0.60500
H1789       H  0.77384251  0.58168426  0.67642622     0.16400
O1790       O  0.71793797  0.58099491  0.68177977    -0.60600
H1791       H  0.71438152  0.54459687  0.67944827     0.43400
H1792       H  0.77847058  0.60920110  0.58103044     0.43300
C1793       C  0.52775296  0.72511467  0.61440473    -0.05700
C1794       C  0.51442601  0.74726778  0.63636603    -0.33100
C1795       C  0.48397324  0.75601845  0.63703412     0.36100
C1796       C  0.46633245  0.74275429  0.61541605    -0.06100
C1797       C  0.47975870  0.71859590  0.59404311    -0.33000
C1798       C  0.50990526  0.70960356  0.59346792     0.36000
H1799       H  0.52777215  0.75951125  0.65267790     0.16400
O1800       O  0.47203787  0.77947250  0.65838689    -0.60500
H1801       H  0.46687103  0.70653865  0.57740977     0.16400
O1802       O  0.52173423  0.68603011  0.57207188    -0.60600
H1803       H  0.52142709  0.64983461  0.57639599     0.43400
H1804       H  0.46856321  0.75243335  0.67128218     0.43300
C1805       C  0.62402858  0.12172978  0.52785110    -0.05700
C1806       C  0.65078317  0.12524522  0.51419047    -0.33100
C1807       C  0.65124371  0.12548077  0.48661340     0.36100
C1808       C  0.62472622  0.12207178  0.47249760    -0.06100
C1809       C  0.59852727  0.11391900  0.48623442    -0.33000
C1810       C  0.59800356  0.11386708  0.51354475     0.36000
H1811       H  0.67095126  0.13219107  0.52479058     0.16400
O1812       O  0.67712910  0.13494678  0.47385130    -0.60500
H1813       H  0.57795092  0.11097152  0.47573329     0.16400
O1814       O  0.57159675  0.10856608  0.52619352    -0.60600
H1815       H  0.56156793  0.14134093  0.52434332     0.43400
H1816       H  0.68542171  0.10148899  0.46981200     0.43300
C1817       C  0.62024801  0.86698541  0.61994008    -0.05700
C1818       C  0.61848927  0.88707347  0.64522312    -0.33100
C1819       C  0.61893578  0.93875329  0.64946145     0.36100
C1820       C  0.62163544  0.97215712  0.62813886    -0.06100
C1821       C  0.62304200  0.95214788  0.60279014    -0.33000
C1822       C  0.62239377  0.90032949  0.59856207     0.36000
H1823       H  0.61637281  0.86266464  0.66195728     0.16400
O1824       O  0.61684551  0.95585436  0.67467680    -0.60500
H1825       H  0.62494184  0.97667575  0.58604313     0.16400
O1826       O  0.62372059  0.88299345  0.57335917    -0.60600
H1827       H  0.64495492  0.88086318  0.56922257     0.43400
H1828       H  0.59549521  0.95908858  0.67809606     0.43300
C1829       C  0.61873086  0.36687234  0.62229896    -0.05700
C1830       C  0.61600505  0.39833430  0.60036848    -0.33100
C1831       C  0.61730906  0.45047198  0.60279874     0.36100
C1832       C  0.62161149  0.47254954  0.62753876    -0.06100
C1833       C  0.62410787  0.44109598  0.64947105    -0.33000
C1834       C  0.62281791  0.38902494  0.64704961     0.36000
H1835       H  0.61268599  0.38264052  0.58107335     0.16400
O1836       O  0.61456671  0.47919341  0.58075484    -0.60500
H1837       H  0.62738894  0.45673695  0.66878376     0.16400
O1838       O  0.62537212  0.36043781  0.66914976    -0.60600
H1839       H  0.64675112  0.35498754  0.67140034     0.43400
H1840       H  0.59319241  0.48515009  0.57883832     0.43300
C1841       C  0.71464483  0.12014212  0.63976820    -0.05700
C1842       C  0.73016457  0.11549066  0.61609637    -0.33100
C1843       C  0.76104286  0.11318068  0.61563216     0.36100
C1844       C  0.77724687  0.11572914  0.63914927    -0.06100
C1845       C  0.76161046  0.12124681  0.66270184    -0.33000
C1846       C  0.73093709  0.12349678  0.66320092     0.36000
H1847       H  0.71834195  0.11300034  0.59779897     0.16400
O1848       O  0.77501501  0.10917483  0.59199476    -0.60500
H1849       H  0.77315807  0.12428311  0.68111727     0.16400
O1850       O  0.71725322  0.13064387  0.68680794    -0.60600
H1851       H  0.71674283  0.09712946  0.69512680     0.43400
H1852       H  0.77591195  0.07272255  0.58831465     0.43300
C1853       C  0.46384110  0.24352095  0.61674963    -0.05700
C1854       C  0.47752781  0.22083375  0.59507905    -0.33100
C1855       C  0.50771223  0.21205709  0.59455870     0.36100
C1856       C  0.52537168  0.22608526  0.61592475    -0.06100
C1857       C  0.51180992  0.24716370  0.63806475    -0.33000
C1858       C  0.48133009  0.25589796  0.63862437     0.36000
H1859       H  0.46481883  0.20977875  0.57815237     0.16400
O1860       O  0.51975402  0.19012491  0.57278772    -0.60500
H1861       H  0.52499733  0.25853884  0.65464502     0.16400
O1862       O  0.46921973  0.27844793  0.66016687    -0.60600
H1863       H  0.46583256  0.25093111  0.67280220     0.43400
H1864       H  0.51981513  0.15368227  0.57651314     0.43300
C1865       C  0.62183821  0.86059965  0.97090706    -0.05700
C1866       C  0.64795769  0.86968838  0.98480000    -0.33100
C1867       C  0.64808411  0.86931232  0.01240320     0.36100
C1868       C  0.62197646  0.85876225  0.02625621    -0.06100
C1869       C  0.59557008  0.85564667  0.01227137    -0.33000
C1870       C  0.59528928  0.85714441  0.98503319     0.36000
H1871       H  0.66857117  0.87295705  0.97437787     0.16400
O1872       O  0.67421691  0.87408350  0.02540146    -0.60500
H1873       H  0.57507218  0.84903727  0.02247531     0.16400
O1874       O  0.56901138  0.85109280  0.97233550    -0.60600
H1875       H  0.56205638  0.88555382  0.96867607     0.43400
H1876       H  0.67600386  0.91035043  0.02933121     0.43300
C1877       C  0.71852211  0.85505539  0.86157693    -0.05700
C1878       C  0.73329021  0.87733639  0.88279123    -0.33100
C1879       C  0.76408528  0.88221991  0.88286236     0.36100
C1880       C  0.78081560  0.86449331  0.86151553    -0.06100
C1881       C  0.76599380  0.84099703  0.84074736    -0.33000
C1882       C  0.73545379  0.83589984  0.84070041     0.36000
H1883       H  0.72089309  0.89250662  0.89904184     0.16400
O1884       O  0.77741761  0.90526955  0.90366130    -0.60500
H1885       H  0.77816046  0.82595805  0.82432036     0.16400
O1886       O  0.72244493  0.81234799  0.81986842    -0.60600
H1887       H  0.72048103  0.77679800  0.82518903     0.43400
H1888       H  0.77922867  0.94096685  0.89856946     0.43300
C1889       C  0.53202918  0.74751519  0.88467768    -0.05700
C1890       C  0.51758441  0.72774682  0.86270786    -0.33100
C1891       C  0.48704548  0.71945358  0.86300208     0.36100
C1892       C  0.47028351  0.73201912  0.88535956    -0.06100
C1893       C  0.48495081  0.75257874  0.90705612    -0.33000
C1894       C  0.51525072  0.76030723  0.90685699     0.36000
H1895       H  0.53011629  0.71721424  0.84556474     0.16400
O1896       O  0.47401435  0.69860559  0.84143922    -0.60500
H1897       H  0.47291460  0.76310652  0.92447567     0.16400
O1898       O  0.52825386  0.78054166  0.92862360    -0.60600
H1899       H  0.52858695  0.81719740  0.92551874     0.43400
H1900       H  0.47447244  0.66194197  0.84451841     0.43300
C1901       C  0.61487866  0.75810088  0.77447538    -0.05700
C1902       C  0.60852201  0.79016220  0.75345764    -0.33100
C1903       C  0.60874564  0.77256397  0.72760876     0.36100
C1904       C  0.61595572  0.72223758  0.72232336    -0.06100
C1905       C  0.62136183  0.68988940  0.74347963    -0.33000
C1906       C  0.62049722  0.70729221  0.76932091     0.36000
H1907       H  0.60405975  0.82944373  0.75705878     0.16400
O1908       O  0.60314140  0.80540318  0.70768318    -0.60500
H1909       H  0.62675027  0.65092583  0.73997025     0.16400
O1910       O  0.62732196  0.67512826  0.78921079    -0.60600
H1911       H  0.60848549  0.65889951  0.79399644     0.43400
H1912       H  0.62195519  0.82321706  0.70469706     0.43300
C1913       C  0.62967975  0.35897813  0.97259592    -0.05700
C1914       C  0.65619892  0.36107312  0.98668131    -0.33100
C1915       C  0.65608903  0.36211238  0.01430796     0.36100
C1916       C  0.62920628  0.36098348  0.02808547    -0.06100
C1917       C  0.60298189  0.36369662  0.01379655    -0.33000
C1918       C  0.60304885  0.36284587  0.98650651     0.36000
H1919       H  0.67691263  0.35768215  0.97642177     0.16400
O1920       O  0.68217856  0.35853311  0.02747572    -0.60500
H1921       H  0.58206443  0.36325282  0.02390333     0.16400
O1922       O  0.57667334  0.36190180  0.97361096    -0.60600
H1923       H  0.57268138  0.39727554  0.96894971     0.43400
H1924       H  0.68764048  0.39354331  0.03179117     0.43300
C1925       C  0.63043112  0.61423828  0.87745718    -0.05700
C1926       C  0.62288027  0.58248442  0.89833155    -0.33100
C1927       C  0.62474200  0.53038111  0.89600731     0.36100
C1928       C  0.63452016  0.50852879  0.87245233    -0.06100
C1929       C  0.64243981  0.54038625  0.85165981    -0.33000
C1930       C  0.64060211  0.59256405  0.85405310     0.36000
H1931       H  0.61490988  0.59799051  0.91657305     0.16400
O1932       O  0.61679026  0.50141945  0.91695517    -0.60500
H1933       H  0.65020180  0.52494599  0.83333606     0.16400
O1934       O  0.64905076  0.62183881  0.83341480    -0.60600
H1935       H  0.67016957  0.62888330  0.83634259     0.43400
H1936       H  0.59531021  0.49641737  0.91516215     0.43300
C1937       C  0.63099147  0.11387937  0.87721450    -0.05700
C1938       C  0.63111182  0.08249026  0.89932921    -0.33100
C1939       C  0.63150314  0.03033552  0.89686640     0.36100
C1940       C  0.63213959  0.00814877  0.87192522    -0.06100
C1941       C  0.63274427  0.03937992  0.84979810    -0.33000
C1942       C  0.63218659  0.09158253  0.85223344     0.36000
H1943       H  0.63047128  0.09822888  0.91883134     0.16400
O1944       O  0.63198904  0.00158520  0.91903715    -0.60500
H1945       H  0.63319940  0.02333257  0.83035124     0.16400
O1946       O  0.63215853  0.12010920  0.82998778    -0.60600
H1947       H  0.65315739  0.12583204  0.82581420     0.43400
H1948       H  0.61120491  0.99898905  0.92466677     0.43300
C1949       C  0.72409512  0.35474870  0.86318162    -0.05700
C1950       C  0.73899664  0.37669662  0.88439876    -0.33100
C1951       C  0.76983752  0.38039530  0.88457917     0.36100
C1952       C  0.78640248  0.36156620  0.86339474    -0.06100
C1953       C  0.77143056  0.33782684  0.84279815    -0.33000
C1954       C  0.74080243  0.33438621  0.84252491     0.36000
H1955       H  0.72667605  0.39267465  0.90048662     0.16400
O1956       O  0.78338970  0.40351355  0.90524885    -0.60500
H1957       H  0.78352207  0.32169753  0.82660772     0.16400
O1958       O  0.72745167  0.30984865  0.82216801    -0.60600
H1959       H  0.72766755  0.33391773  0.80743711     0.43400
H1960       H  0.78416174  0.43950771  0.90053373     0.43300
C1961       C  0.47343521  0.23260108  0.88704350    -0.05700
C1962       C  0.48833443  0.24977291  0.90944076    -0.33100
C1963       C  0.51855411  0.25873174  0.90923840     0.36100
C1964       C  0.53516428  0.25031416  0.88639230    -0.06100
C1965       C  0.52042560  0.23447575  0.86368296    -0.33000
C1966       C  0.48991647  0.22536838  0.86389599     0.36000
H1967       H  0.47653871  0.25665368  0.92747009     0.16400
O1968       O  0.53162651  0.27576076  0.93170337    -0.60500
H1969       H  0.53270500  0.22770112  0.84589525     0.16400
O1970       O  0.47659898  0.20940877  0.84136974    -0.60600
H1971       H  0.47780808  0.17233114  0.84187187     0.43400
H1972       H  0.53264615  0.31268085  0.92975078     0.43300
C1973       C  0.61789962  0.26050923  0.77577243    -0.05700
C1974       C  0.61474212  0.20888109  0.77150193    -0.33100
C1975       C  0.61331728  0.18951798  0.74602264     0.36100
C1976       C  0.61406878  0.22198831  0.72427671    -0.06100
C1977       C  0.61520000  0.27379960  0.72859680    -0.33000
C1978       C  0.61741326  0.29309046  0.75403334     0.36000
H1979       H  0.61470066  0.18326475  0.78787875     0.16400
O1980       O  0.61107068  0.13868382  0.74252611    -0.60500
H1981       H  0.61576671  0.29929802  0.71218447     0.16400
O1982       O  0.61968945  0.34392907  0.75739225    -0.60600
H1983       H  0.59929496  0.35569389  0.76025056     0.43400
H1984       H  0.63128689  0.12562604  0.74475090     0.43300
loop_ 
_geom_bond_atom_site_label_1 
_geom_bond_atom_site_label_2 
_geom_bond_distance 
_geom_bond_site_symmetry_2 
_ccdc_geom_bond_type 
O1           Ni7   1.921       .  S
O1           C22   1.269       .  A
O2          Ni25   1.918       .  S
O2           C11   1.272       .  A
O3           Ni7   1.896       .  S
O3          Ni25   1.905       .  S
O3          Ni19   1.908       .  S
O3           H26   0.966       .  S
C4           O21   1.275       .  A
C4           O13   1.275       .  A
C4         C1928   1.489       .  S
O5          Ni24   1.930       .  S
O5           C11   1.272       .  A
O6          Ni24   1.906       .  S
O6            C8   1.271       .  A
Ni7          O10   1.912       .  S
Ni7          O12   1.904       .  S
C8           O18   1.277       .  A
C8         C1949   1.490       .  S
O9          Ni25   1.929       .  S
O9           C15   1.281       .  A
O10          C15   1.277       .  A
C11        C1973   1.486       .  S
O12          C14   1.268       .  A
O13         Ni24   1.924       .  S
C14          O20   1.274       .  A
C14        C1964   1.491       .  S
C15        C1937   1.488       .  S
H16          O17   0.966       .  S
O17         Ni25   1.921       .  S
O17         Ni19   1.924       .  S
O17         Ni24   1.910       .  S
O18         Ni19   1.946       .  S
Ni19         O23   1.942       .  S
Ni19         O21   1.912       .  S
O20         Ni25   1.940       .  S
C22          O23   1.274       .  A
C22        C1913   1.490       .  S
O27         Ni33   1.917       .  S
O27          C48   1.267       .  A
O28         Ni51   1.918       .  S
O28          C37   1.272       .  A
O29         Ni33   1.897       .  S
O29         Ni51   1.902       .  S
O29         Ni45   1.906       .  S
O29          H52   0.966       .  S
C30          O47   1.271       .  A
C30          O39   1.271       .  A
C30        C1940   1.483   1_565  S
O31         Ni50   1.922       .  S
O31          C37   1.271       .  A
O32         Ni50   1.903       .  S
O32          C34   1.272       .  A
Ni33         O36   1.912       .  S
Ni33         O38   1.899       .  S
C34          O44   1.281       .  A
C34        C1877   1.494       .  S
O35         Ni51   1.934       .  S
O35          C41   1.282       .  A
O36          C41   1.277       .  A
C37        C1901   1.482       .  S
O38          C40   1.266       .  A
O39         Ni50   1.922       .  S
C40          O46   1.274       .  A
C40        C1889   1.485       .  S
C41        C1925   1.486       .  S
H42          O43   0.966       .  S
O43         Ni51   1.932       .  S
O43         Ni45   1.926       .  S
O43         Ni50   1.912       .  S
O44         Ni45   1.957       .  S
Ni45         O49   1.941       .  S
Ni45         O47   1.907       .  S
O46         Ni51   1.940       .  S
C48          O49   1.273       .  A
C48        C1865   1.489       .  S
O53         Ni59   1.921       .  S
O53          C74   1.269       .  A
O54         Ni77   1.924       .  S
O54          C63   1.272       .  A
O55         Ni59   1.898       .  S
O55         Ni77   1.905       .  S
O55         Ni71   1.909       .  S
O55          H78   0.966       .  S
C56          O73   1.278       .  A
C56          O65   1.272       .  A
C56        C1820   1.488   1_545  S
O57         Ni76   1.922       .  S
O57          C63   1.269       .  A
O58         Ni76   1.905       .  S
O58          C60   1.270       .  A
Ni59         O62   1.917       .  S
Ni59         O64   1.902       .  S
C60          O70   1.277       .  A
C60        C1841   1.496       .  S
O61         Ni77   1.920       .  S
O61          C67   1.280       .  A
O62          C67   1.278       .  A
C63        C1976   1.483       .  S
O64          C66   1.267       .  A
O65         Ni76   1.911       .  S
C66          O72   1.272       .  A
C66        C1856   1.486       .  S
C67        C1829   1.486       .  S
H68          O69   0.966       .  S
O69         Ni77   1.919       .  S
O69         Ni71   1.922       .  S
O69         Ni76   1.905       .  S
O70         Ni71   1.943       .  S
Ni71         O75   1.938       .  S
Ni71         O73   1.922       .  S
O72         Ni77   1.936       .  S
C74          O75   1.273       .  A
C74        C1805   1.486       .  S
O79         Ni85   1.924       .  S
O79         C100   1.269       .  A
O80        Ni103   1.921       .  S
O80          C89   1.271       .  A
O81         Ni85   1.901       .  S
O81        Ni103   1.908       .  S
O81         Ni97   1.910       .  S
O81         H104   0.966       .  S
C82          O99   1.277       .  A
C82          O91   1.275       .  A
C82        C1832   1.486       .  S
O83        Ni102   1.924       .  S
O83          C89   1.270       .  A
O84        Ni102   1.904       .  S
O84          C86   1.269       .  A
Ni85         O88   1.921       .  S
Ni85         O90   1.900       .  S
C86          O96   1.276       .  A
C86        C1781   1.497       .  S
O87        Ni103   1.919       .  S
O87          C93   1.281       .  A
O88          C93   1.277       .  A
C89        C1904   1.488       .  S
O90          C92   1.267       .  A
O91        Ni102   1.913       .  S
C92          O98   1.271       .  A
C92        C1793   1.483       .  S
C93        C1817   1.488       .  S
H94          O95   0.966       .  S
O95        Ni103   1.915       .  S
O95         Ni97   1.917       .  S
O95        Ni102   1.902       .  S
O96         Ni97   1.940       .  S
Ni97        O101   1.931       .  S
Ni97         O99   1.919       .  S
O98        Ni103   1.932       .  S
C100        O101   1.271       .  A
C100       C1769   1.484       .  S
O105       Ni111   1.920       .  S
O105        C126   1.269       .  A
O106       Ni129   1.926       .  S
O106        C115   1.274       .  A
O107       Ni111   1.892       .  S
O107       Ni129   1.898       .  S
O107       Ni123   1.909       .  S
O107        H130   0.966       .  S
C108        O125   1.277       .  A
C108        O117   1.274       .  A
C108       C1724   1.486   1_545  S
O109       Ni128   1.928       .  S
O109        C115   1.272       .  A
O110       Ni128   1.908       .  S
O110        C112   1.272       .  A
Ni111       O114   1.917       .  S
Ni111       O116   1.903       .  S
C112        O122   1.277       .  A
C112       C1748   1.497       .  S
O113       Ni129   1.927       .  S
O113        C119   1.284       .  A
O114        C119   1.278       .  A
C115       C1757   1.492       .  S
O116        C118   1.268       .  A
O117       Ni128   1.917       .  S
C118        O124   1.275       .  A
C118       C1961   1.500       .  S
C119       C1733   1.485       .  S
H120        O121   0.966       .  S
O121       Ni129   1.923       .  S
O121       Ni123   1.922       .  S
O121       Ni128   1.906       .  S
O122       Ni123   1.943       .  S
Ni123       O127   1.934       .  S
Ni123       O125   1.924       .  S
O124       Ni129   1.945       .  S
C126        O127   1.273       .  A
C126       C1709   1.484       .  S
O131       Ni137   1.923       .  S
O131        C152   1.269       .  A
O132       Ni155   1.923       .  S
O132        C141   1.273       .  A
O133       Ni137   1.897       .  S
O133       Ni155   1.903       .  S
O133       Ni149   1.906       .  S
O133        H156   0.966       .  S
C134        O151   1.273       .  A
C134        O143   1.272       .  A
C134       C1736   1.488       .  S
O135       Ni154   1.930       .  S
O135        C141   1.272       .  A
O136       Ni154   1.901       .  S
O136        C138   1.270       .  A
Ni137       O140   1.917       .  S
Ni137       O142   1.903       .  S
C138        O148   1.277       .  A
C138       C1688   1.492       .  S
O139       Ni155   1.930       .  S
O139        C145   1.282       .  A
O140        C145   1.277       .  A
C141       C1697   1.495       .  S
O142        C144   1.268       .  A
O143       Ni154   1.919       .  S
C144        O150   1.273       .  A
C144       C1892   1.495       .  S
C145       C1721   1.486       .  S
H146        O147   0.966       .  S
O147       Ni155   1.924       .  S
O147       Ni149   1.926       .  S
O147       Ni154   1.909       .  S
O148       Ni149   1.944       .  S
Ni149       O153   1.931       .  S
Ni149       O151   1.911       .  S
O150       Ni155   1.936       .  S
C152        O153   1.271       .  A
C152       C1673   1.485       .  S
O157       Ni163   1.921       .  S
O157        C178   1.267       .  A
O158       Ni181   1.927       .  S
O158        C167   1.275       .  A
O159       Ni163   1.899       .  S
O159       Ni181   1.904       .  S
O159       Ni175   1.900       .  S
O159        H182   0.966       .  S
C160        O177   1.269       .  A
C160        O169   1.273       .  A
C160       C1637   1.489       .  S
O161       Ni180   1.929       .  S
O161        C167   1.273       .  A
O162       Ni180   1.904       .  S
O162        C164   1.273       .  A
Ni163       O166   1.908       .  S
Ni163       O168   1.900       .  S
C164        O174   1.281       .  A
C164       C1661   1.498       .  S
O165       Ni181   1.935       .  S
O165        C171   1.284       .  A
O166        C171   1.276       .  A
C167       C1760   1.495       .  S
O168        C170   1.268       .  A
O169       Ni180   1.933       .  S
C170        O176   1.274       .  A
C170       C1853   1.494       .  S
C171       C1649   1.484       .  S
H172        O173   0.966       .  S
O173       Ni181   1.935       .  S
O173       Ni175   1.927       .  S
O173       Ni180   1.915       .  S
O174       Ni175   1.957       .  S
Ni175       O179   1.943       .  S
Ni175       O177   1.905       .  S
O176       Ni181   1.939       .  S
C178        O179   1.273       .  A
C178       C1625   1.491       .  S
O183       Ni189   1.924       .  S
O183        C204   1.269       .  A
O184       Ni207   1.919       .  S
O184        C193   1.272       .  A
O185       Ni189   1.901       .  S
O185       Ni207   1.904       .  S
O185       Ni201   1.906       .  S
O185        H208   0.966       .  S
C186        O203   1.271       .  A
C186        O195   1.271       .  A
C186       C1652   1.489   1_565  S
O187       Ni206   1.927       .  S
O187        C193   1.271       .  A
O188       Ni206   1.900       .  S
O188        C190   1.272       .  A
Ni189       O192   1.917       .  S
Ni189       O194   1.896       .  S
C190        O200   1.282       .  A
C190       C1613   1.499       .  S
O191       Ni207   1.929       .  S
O191        C197   1.280       .  A
O192        C197   1.277       .  A
C193       C1700   1.489       .  S
O194        C196   1.267       .  A
O195       Ni206   1.920       .  S
C196        O202   1.274       .  A
C196       C1796   1.492       .  S
C197       C1640   1.481       .  S
H198        O199   0.966       .  S
O199       Ni207   1.932       .  S
O199       Ni201   1.931       .  S
O199       Ni206   1.914       .  S
O200       Ni201   1.959       .  S
Ni201       O205   1.939       .  S
Ni201       O203   1.913       .  S
O202       Ni207   1.941       .  S
C204        O205   1.273       .  A
C204       C1601   1.489       .  S
O209       Ni215   1.921       .  S
O209        C230   1.269       .  A
O210       Ni233   1.915       .  S
O210        C219   1.271       .  A
O211       Ni215   1.894       .  S
O211       Ni233   1.899       .  S
O211       Ni227   1.907       .  S
O211        H234   0.967       .  S
C212        O229   1.275       .  A
C212        O221   1.273       .  A
C212       C1565   1.490       .  S
O213       Ni232   1.930       .  S
O213        C219   1.273       .  A
O214       Ni232   1.907       .  S
O214        C216   1.272       .  A
Ni215       O218   1.912   1_545  S
Ni215       O220   1.906       .  S
C216        O226   1.278       .  A
C216       C1844   1.499       .  S
O217       Ni233   1.938   1_565  S
O217        C223   1.284       .  A
O218        C223   1.277       .  A
C219       C1589   1.484       .  S
O220        C222   1.268       .  A
O221       Ni232   1.920       .  S
C222        O228   1.274       .  A
C222       C1580   1.500   1_545  S
C223       C1553   1.486       .  S
H224        O225   0.965       .  S
O225       Ni233   1.928       .  S
O225       Ni227   1.926       .  S
O225       Ni232   1.912       .  S
O226       Ni227   1.946       .  S
Ni227       O231   1.937       .  S
Ni227       O229   1.917       .  S
O228       Ni233   1.943       .  S
C230        O231   1.273       .  A
C230       C1541   1.487       .  S
O235       Ni241   1.919       .  S
O235        C256   1.268       .  A
O236       Ni259   1.917       .  S
O236        C245   1.272       .  A
O237       Ni241   1.898       .  S
O237       Ni259   1.898       .  S
O237       Ni253   1.907       .  S
O237        H260   0.967       .  S
C238        O255   1.273       .  A
C238        O247   1.272       .  A
C238       C1556   1.491       .  S
O239       Ni258   1.931       .  S
O239        C245   1.273       .  A
O240       Ni258   1.906       .  S
O240        C242   1.273       .  A
Ni241       O244   1.916       .  S
Ni241       O246   1.905       .  S
C242        O252   1.278       .  A
C242       C1784   1.495       .  S
O243       Ni259   1.933       .  S
O243        C249   1.283       .  A
O244        C249   1.277       .  A
C245       C1529   1.483       .  S
O246        C248   1.268       .  A
O247       Ni258   1.927       .  S
C248        O254   1.274       .  A
C248       C1517   1.499       .  S
C249       C1568   1.487       .  S
H250        O251   0.965       .  S
O251       Ni259   1.930       .  S
O251       Ni253   1.926       .  S
O251       Ni258   1.913       .  S
O252       Ni253   1.949       .  S
Ni253       O257   1.937       .  S
Ni253       O255   1.910       .  S
O254       Ni259   1.943       .  S
C256        O257   1.272       .  A
C256       C1505   1.486       .  S
O261       Ni267   1.923       .  S
O261        C282   1.270       .  A
O262       Ni285   1.927       .  S
O262        C271   1.274       .  A
O263       Ni267   1.893       .  S
O263       Ni285   1.903       .  S
O263       Ni279   1.910       .  S
O263        H286   0.966       .  S
C264        O281   1.279       .  A
C264        O273   1.273       .  A
C264       C1481   1.489       .  S
O265       Ni284   1.926       .  S
O265        C271   1.271       .  A
O266       Ni284   1.905       .  S
O266        C268   1.271       .  A
Ni267       O270   1.917       .  S
Ni267       O272   1.902       .  S
C268        O278   1.276       .  A
C268       C1952   1.492       .  S
O269       Ni285   1.927       .  S
O269        C275   1.282       .  A
O270        C275   1.277       .  A
C271       C1532   1.493       .  S
O272        C274   1.267       .  A
O273       Ni284   1.914       .  S
C274        O280   1.275       .  A
C274       C1493   1.491       .  S
C275       C1472   1.487       .  S
H276        O277   0.966       .  S
O277       Ni285   1.918       .  S
O277       Ni279   1.920       .  S
O277       Ni284   1.904       .  S
O278       Ni279   1.941       .  S
Ni279       O283   1.936       .  S
Ni279       O281   1.922       .  S
O280       Ni285   1.943       .  S
C282        O283   1.273       .  A
C282       C1457   1.486       .  S
O287       Ni293   1.917       .  S
O287        C308   1.268       .  A
O288       Ni311   1.919       .  S
O288        C297   1.272       .  A
O289       Ni293   1.890       .  S
O289       Ni311   1.899       .  S
O289       Ni305   1.910       .  S
O289        H312   0.966       .  S
C290        O307   1.277       .  A
C290        O299   1.274       .  A
C290       C1469   1.485       .  S
O291       Ni310   1.928       .  S
O291        C297   1.273       .  A
O292       Ni310   1.908       .  S
O292        C294   1.272       .  A
Ni293       O296   1.913   1_565  S
Ni293       O298   1.900       .  S
C294        O304   1.277       .  A
C294       C1880   1.494       .  S
O295       Ni311   1.930   1_545  S
O295        C301   1.284       .  A
O296        C301   1.277       .  A
C297       C1592   1.485       .  S
O298        C300   1.268       .  A
O299       Ni310   1.918       .  S
C300        O306   1.276       .  A
C300       C1445   1.497       .  S
C301       C1484   1.488       .  S
H302        O303   0.966       .  S
O303       Ni311   1.922       .  S
O303       Ni305   1.919       .  S
O303       Ni310   1.905       .  S
O304       Ni305   1.943       .  S
Ni305       O309   1.936       .  S
Ni305       O307   1.920       .  S
O306       Ni311   1.948       .  S
C308        O309   1.273       .  A
C308       C1433   1.484       .  S
O313       Ni319   1.920       .  S
O313        C334   1.268       .  A
O314       Ni337   1.928       .  S
O314        C323   1.275       .  A
O315       Ni319   1.896       .  S
O315       Ni337   1.902       .  S
O315       Ni331   1.903       .  S
O315        H338   0.967       .  S
C316        O333   1.271       .  A
C316        O325   1.272       .  A
C316       C1412   1.487       .  S
O317       Ni336   1.926       .  S
O317        C323   1.272       .  A
O318       Ni336   1.907       .  S
O318        C320   1.272       .  A
Ni319       O322   1.911   1_545  S
Ni319       O324   1.902       .  S
C320        O330   1.280       .  A
C320       C1745   1.496       .  S
O321       Ni337   1.933   1_565  S
O321        C327   1.284       .  A
O322        C327   1.276       .  A
C323       C1421   1.490       .  S
O324        C326   1.267       .  A
O325       Ni336   1.924       .  S
C326        O332   1.276       .  A
C326       C1448   1.503       .  S
C327       C1397   1.486       .  S
H328        O329   0.966       .  S
O329       Ni337   1.934       .  S
O329       Ni331   1.932       .  S
O329       Ni336   1.916       .  S
O330       Ni331   1.952       .  S
Ni331       O335   1.942       .  S
Ni331       O333   1.910       .  S
O332       Ni337   1.947       .  S
C334        O335   1.273       .  A
C334       C1385   1.488       .  S
O339       Ni345   1.922       .  S
O339        C360   1.268       .  A
O340       Ni363   1.916       .  S
O340        C349   1.271       .  A
O341       Ni345   1.899       .  S
O341       Ni363   1.902       .  S
O341       Ni357   1.905       .  S
O341        H364   0.966       .  S
C342        O359   1.273       .  A
C342        O351   1.270       .  A
C342       C1400   1.490       .  S
O343       Ni362   1.925       .  S
O343        C349   1.271       .  A
O344       Ni362   1.900       .  S
O344        C346   1.272       .  A
Ni345       O348   1.915       .  S
Ni345       O350   1.904       .  S
C346        O356   1.280       .  A
C346       C1685   1.492       .  S
O347       Ni363   1.930       .  S
O347        C353   1.281       .  A
O348        C353   1.277       .  A
C349       C1373   1.484       .  S
O350        C352   1.268       .  A
O351       Ni362   1.920       .  S
C352        O358   1.273       .  A
C352       C1496   1.497       .  S
C353       C1409   1.492       .  S
H354        O355   0.966       .  S
O355       Ni363   1.929       .  S
O355       Ni357   1.928       .  S
O355       Ni362   1.911       .  S
O356       Ni357   1.955       .  S
Ni357       O361   1.937       .  S
Ni357       O359   1.914       .  S
O358       Ni363   1.937       .  S
C360        O361   1.273       .  A
C360       C1361   1.486       .  S
O365       Ni371   1.926       .  S
O365        C386   1.271       .  A
O366       Ni389   1.925       .  S
O366        C375   1.273       .  A
O367       Ni371   1.897       .  S
O367       Ni389   1.908       .  S
O367       Ni383   1.911       .  S
O367        H390   0.966       .  S
C368        O385   1.280       .  A
C368        O377   1.273       .  A
C368       C1349   1.488       .  S
O369       Ni388   1.923       .  S
O369        C375   1.270       .  A
O370       Ni388   1.904       .  S
O370        C372   1.269       .  A
Ni371       O374   1.920       .  S
Ni371       O376   1.906       .  S
C372        O382   1.277       .  A
C372       C1664   1.499       .  S
O373       Ni389   1.921       .  S
O373        C379   1.279       .  A
O374        C379   1.278       .  A
C375       C1376   1.490       .  S
O376        C378   1.268       .  A
O377       Ni388   1.910       .  S
C378        O384   1.275       .  A
C378       C1520   1.491       .  S
C379       C1337   1.485       .  S
H380        O381   0.966       .  S
O381       Ni389   1.916       .  S
O381       Ni383   1.919       .  S
O381       Ni388   1.902       .  S
O382       Ni383   1.943       .  S
Ni383       O387   1.938       .  S
Ni383       O385   1.925       .  S
O384       Ni389   1.943       .  S
C386        O387   1.274       .  A
C386       C1325   1.488       .  S
O391       Ni397   1.925       .  S
O391        C412   1.270       .  A
O392       Ni415   1.931       .  S
O392        C401   1.275       .  A
O393       Ni397   1.897       .  S
O393       Ni415   1.908       .  S
O393       Ni409   1.909       .  S
O393        H416   0.966       .  S
C394        O411   1.277       .  A
C394        O403   1.274       .  A
C394       C1340   1.484       .  S
O395       Ni414   1.926       .  S
O395        C401   1.271       .  A
O396       Ni414   1.908       .  S
O396        C398   1.272       .  A
Ni397       O400   1.919   1_565  S
Ni397       O402   1.901       .  S
C398        O408   1.275       .  A
C398       C1616   1.499       .  S
O399       Ni415   1.922   1_545  S
O399        C405   1.282       .  A
O400        C405   1.277       .  A
C401       C1424   1.494       .  S
O402        C404   1.267       .  A
O403       Ni414   1.914       .  S
C404        O410   1.276       .  A
C404       C1577   1.491       .  S
C405       C1352   1.488       .  S
H406        O407   0.966       .  S
O407       Ni415   1.919       .  S
O407       Ni409   1.921       .  S
O407       Ni414   1.906       .  S
O408       Ni409   1.940       .  S
Ni409       O413   1.934       .  S
Ni409       O411   1.920       .  S
O410       Ni415   1.946       .  S
C412        O413   1.272       .  A
C412       C1313   1.486       .  S
O417       Ni423   1.925       .  S
O417        C438   1.271       .  A
O418       Ni441   1.933       .  S
O418        C427   1.271       .  A
O419       Ni423   1.907       .  S
O419       Ni441   1.926       .  S
O419       Ni435   1.927       .  S
O419        H442   0.966       .  S
C420        O437   1.284       .  A
C420        O429   1.277       .  A
C420       C1265   1.489       .  S
O421       Ni440   1.919       .  S
O421        C427   1.268       .  A
O422       Ni440   1.902       .  S
O422        C424   1.267       .  A
Ni423       O426   1.918       .  S
Ni423       O428   1.900       .  S
C424        O434   1.274       .  A
C424       C1289   1.491       .  S
O425       Ni441   1.914       .  S
O425        C431   1.274       .  A
O426        C431   1.271       .  A
C427       C1712   1.483       .  S
O428        C430   1.271       .  A
O429       Ni440   1.914       .  S
C430        O436   1.278       .  A
C430       C1280   1.497       .  S
C431       C1253   1.485   1_545  S
H432        O433   0.966       .  S
O433       Ni441   1.908       .  S
O433       Ni435   1.905       .  S
O433       Ni440   1.899       .  S
O434       Ni435   1.941       .  S
Ni435       O439   1.927       .  S
Ni435       O437   1.936       .  S
O436       Ni441   1.949       .  S
C438        O439   1.274       .  A
C438       C1301   1.493       .  S
O443       Ni449   1.927       .  S
O443        C464   1.272       .  A
O444       Ni467   1.930       .  S
O444        C453   1.270       .  A
O445       Ni449   1.913       .  S
O445       Ni467   1.925       .  S
O445       Ni461   1.931       .  S
O445        H468   0.966       .  S
C446        O463   1.282       .  A
C446        O455   1.276       .  A
C446       C1256   1.489       .  S
O447       Ni466   1.924       .  S
O447        C453   1.269       .  A
O448       Ni466   1.905       .  S
O448        C450   1.268       .  A
Ni449       O452   1.928       .  S
Ni449       O454   1.903       .  S
C450        O460   1.275       .  A
C450       C1229   1.497       .  S
O451       Ni467   1.907       .  S
O451        C457   1.270       .  A
O452        C457   1.273       .  A
C453       C1676   1.483       .  S
O454        C456   1.271       .  A
O455       Ni466   1.915       .  S
C456        O462   1.280       .  A
C456       C1217   1.494       .  S
C457       C1268   1.490       .  S
H458        O459   0.966       .  S
O459       Ni467   1.903       .  S
O459       Ni461   1.902       .  S
O459       Ni466   1.900       .  S
O460       Ni461   1.943       .  S
Ni461       O465   1.921       .  S
Ni461       O463   1.928       .  S
O462       Ni467   1.955       .  S
C464        O465   1.273       .  A
C464       C1241   1.488       .  S
O469       Ni475   1.929       .  S
O469        C490   1.272       .  A
O470       Ni493   1.945       .  S
O470        C479   1.275       .  A
O471       Ni475   1.911       .  S
O471       Ni493   1.928       .  S
O471       Ni487   1.925       .  S
O471        H494   0.966       .  S
C472        O489   1.282       .  A
C472        O481   1.277       .  A
C472       C1181   1.485       .  S
O473       Ni492   1.922       .  S
O473        C479   1.269       .  A
O474       Ni492   1.905       .  S
O474        C476   1.268       .  A
Ni475       O478   1.919       .  S
Ni475       O480   1.904       .  S
C476        O486   1.272       .  A
C476       C1205   1.490       .  S
O477       Ni493   1.915       .  S
O477        C483   1.274       .  A
O478        C483   1.273       .  A
C479       C1628   1.491       .  S
O480        C482   1.271       .  A
O481       Ni492   1.915       .  S
C482        O488   1.279       .  A
C482       C1193   1.498       .  S
C483       C1169   1.487       .  S
H484        O485   0.966       .  S
O485       Ni493   1.907       .  S
O485       Ni487   1.903       .  S
O485       Ni492   1.899       .  S
O486       Ni487   1.934       .  S
Ni487       O491   1.921       .  S
Ni487       O489   1.927       .  S
O488       Ni493   1.948       .  S
C490        O491   1.272       .  A
C490       C1304   1.487       .  S
O495       Ni501   1.929       .  S
O495        C516   1.272       .  A
O496       Ni519   1.939       .  S
O496        C505   1.274       .  A
O497       Ni501   1.907       .  S
O497       Ni519   1.925       .  S
O497       Ni513   1.921       .  S
O497        H520   0.966       .  S
C498        O515   1.283       .  A
C498        O507   1.278       .  A
C498       C1172   1.484       .  S
O499       Ni518   1.921       .  S
O499        C505   1.269       .  A
O500       Ni518   1.899       .  S
O500        C502   1.266       .  A
Ni501       O504   1.916       .  S
Ni501       O506   1.908       .  S
C502        O512   1.276       .  A
C502       C1157   1.491       .  S
O503       Ni519   1.921       .  S
O503        C509   1.277       .  A
O504        C509   1.274       .  A
C505       C1604   1.490       .  S
O506        C508   1.272       .  A
O507       Ni518   1.915       .  S
C508        O514   1.277       .  A
C508       C1145   1.499       .  S
C509       C1184   1.484   1_565  S
H510        O511   0.966       .  S
O511       Ni519   1.908       .  S
O511       Ni513   1.904       .  S
O511       Ni518   1.893       .  S
O512       Ni513   1.946       .  S
Ni513       O517   1.925       .  S
Ni513       O515   1.931       .  S
O514       Ni519   1.946       .  S
C516        O517   1.274       .  A
C516       C1244   1.492       .  S
O521       Ni527   1.926       .  S
O521        C542   1.271       .  A
O522       Ni545   1.943       .  S
O522        C531   1.276       .  A
O523       Ni527   1.903       .  S
O523       Ni545   1.918       .  S
O523       Ni539   1.921       .  S
O523        H546   0.966       .  S
C524        O541   1.283       .  A
C524        O533   1.278       .  A
C524       C1109   1.484       .  S
O525       Ni544   1.921       .  S
O525        C531   1.270       .  A
O526       Ni544   1.908       .  S
O526        C528   1.269       .  A
Ni527       O530   1.919       .  S
Ni527       O532   1.905       .  S
C528        O538   1.274       .  A
C528       C1292   1.500       .  S
O529       Ni545   1.925       .  S
O529        C535   1.281       .  A
O530        C535   1.275       .  A
C531       C1916   1.491       .  S
O532        C534   1.270       .  A
O533       Ni544   1.915       .  S
C534        O540   1.277       .  A
C534       C1121   1.497       .  S
C535       C1097   1.491       .  S
H536        O537   0.966       .  S
O537       Ni545   1.911       .  S
O537       Ni539   1.901       .  S
O537       Ni544   1.894       .  S
O538       Ni539   1.939       .  S
Ni539       O543   1.928       .  S
Ni539       O541   1.927       .  S
O540       Ni545   1.942       .  S
C542        O543   1.273       .  A
C542       C1133   1.494       .  S
O547       Ni553   1.924       .  S
O547        C568   1.271       .  A
O548       Ni571   1.934       .  S
O548        C557   1.271       .  A
O549       Ni553   1.909       .  S
O549       Ni571   1.925       .  S
O549       Ni565   1.924       .  S
O549        H572   0.966       .  S
C550        O567   1.282       .  A
C550        O559   1.276       .  A
C550       C1100   1.493       .  S
O551       Ni570   1.925       .  S
O551        C557   1.270       .  A
O552       Ni570   1.904       .  S
O552        C554   1.269       .  A
Ni553       O556   1.920       .  S
Ni553       O558   1.899       .  S
C554        O564   1.275       .  A
C554       C1232   1.500       .  S
O555       Ni571   1.908       .  S
O555        C561   1.272       .  A
O556        C561   1.273       .  A
C557       C1868   1.489       .  S
O558        C560   1.269       .  A
O559       Ni570   1.914       .  S
C560        O566   1.278       .  A
C560       C1073   1.490       .  S
C561       C1112   1.485   1_565  S
H562        O563   0.967       .  S
O563       Ni571   1.906       .  S
O563       Ni565   1.906       .  S
O563       Ni570   1.896       .  S
O564       Ni565   1.945       .  S
Ni565       O569   1.921       .  S
Ni565       O567   1.936       .  S
O566       Ni571   1.951       .  S
C568        O569   1.273       .  A
C568       C1085   1.490       .  S
O573       Ni579   1.924       .  S
O573        C594   1.270       .  A
O574       Ni597   1.935       .  S
O574        C583   1.272       .  A
O575       Ni579   1.909       .  S
O575       Ni597   1.927       .  S
O575       Ni591   1.925       .  S
O575        H598   0.966       .  S
C576        O593   1.283       .  A
C576        O585   1.276       .  A
C576       C1049   1.491       .  S
O577       Ni596   1.922       .  S
O577        C583   1.269       .  A
O578       Ni596   1.900       .  S
O578        C580   1.268       .  A
Ni579       O582   1.913       .  S
Ni579       O584   1.905       .  S
C580        O590   1.275       .  A
C580       C1208   1.497       .  S
O581       Ni597   1.918       .  S
O581        C587   1.276       .  A
O582        C587   1.272       .  A
C583       C1808   1.484       .  S
O584        C586   1.272       .  A
O585       Ni596   1.915       .  S
C586        O592   1.274       .  A
C586       C1061   1.494       .  S
C587       C1040   1.479   1_545  S
H588        O589   0.966       .  S
O589       Ni597   1.909       .  S
O589       Ni591   1.904       .  S
O589       Ni596   1.896       .  S
O590       Ni591   1.942       .  S
Ni591       O595   1.926       .  S
Ni591       O593   1.932       .  S
O592       Ni597   1.935       .  S
C594        O595   1.273       .  A
C594       C1136   1.482       .  S
O599       Ni605   1.926       .  S
O599        C620   1.271       .  A
O600       Ni623   1.931       .  S
O600        C609   1.271       .  A
O601       Ni605   1.912       .  S
O601       Ni623   1.925       .  S
O601       Ni617   1.925       .  S
O601        H624   0.966       .  S
C602        O619   1.281       .  A
C602        O611   1.276       .  A
C602       C1037   1.484       .  S
O603       Ni622   1.924       .  S
O603        C609   1.270       .  A
O604       Ni622   1.908       .  S
O604        C606   1.270       .  A
Ni605       O608   1.920       .  S
Ni605       O610   1.903       .  S
C606        O616   1.273       .  A
C606       C1160   1.497       .  S
O607       Ni623   1.915       .  S
O607        C613   1.274       .  A
O608        C613   1.271       .  A
C609       C1772   1.483       .  S
O610        C612   1.272       .  A
O611       Ni622   1.915       .  S
C612        O618   1.277       .  A
C612       C1025   1.492       .  S
C613       C1052   1.491       .  S
H614        O615   0.966       .  S
O615       Ni623   1.907       .  S
O615       Ni617   1.901       .  S
O615       Ni622   1.899       .  S
O616       Ni617   1.935       .  S
Ni617       O621   1.916       .  S
Ni617       O619   1.927       .  S
O618       Ni623   1.943       .  S
C620        O621   1.271       .  A
C620       C1088   1.483       .  S
O625       Ni631   1.925       .  S
O625        C646   1.270       .  A
O626       Ni649   1.934       .  S
O626        C635   1.272       .  A
O627       Ni631   1.904       .  S
O627       Ni649   1.923       .  S
O627       Ni643   1.920       .  S
O627        H650   0.966       .  S
C628        O645   1.281       .  A
C628        O637   1.278       .  A
C628        C977   1.486       .  S
O629       Ni648   1.927   1_545  S
O629        C635   1.271       .  A
O630       Ni648   1.903   1_545  S
O630        C632   1.269       .  A
Ni631       O634   1.915       .  S
Ni631       O636   1.900       .  S
C632        O642   1.277       .  A
C632       C1001   1.502       .  S
O633       Ni649   1.917       .  S
O633        C639   1.276       .  A
O634        C639   1.275       .  A
C635       C1544   1.488       .  S
O636        C638   1.269       .  A
O637       Ni648   1.915       .  S
C638        O644   1.276       .  A
C638       C1064   1.496       .  S
C639        C989   1.486       .  S
H640        O641   0.966       .  S
O641       Ni649   1.906       .  S
O641       Ni643   1.908       .  S
O641       Ni648   1.893   1_545  S
O642       Ni643   1.952       .  S
Ni643       O647   1.934       .  S
Ni643       O645   1.923   1_545  S
O644       Ni649   1.943       .  S
C646        O647   1.276       .  A
C646       C1016   1.493       .  S
O651       Ni657   1.924       .  S
O651        C672   1.271       .  A
O652       Ni675   1.933       .  S
O652        C661   1.272       .  A
O653       Ni657   1.903       .  S
O653       Ni675   1.919       .  S
O653       Ni669   1.917       .  S
O653        H676   0.966       .  S
C654        O671   1.281       .  A
C654        O663   1.278       .  A
C654        C992   1.486       .  S
O655       Ni674   1.925       .  S
O655        C661   1.270       .  A
O656       Ni674   1.904       .  S
O656        C658   1.268       .  A
Ni657       O660   1.913       .  S
Ni657       O662   1.901       .  S
C658        O668   1.274       .  A
C658        C953   1.496       .  S
O659       Ni675   1.915       .  S
O659        C665   1.276       .  A
O660        C665   1.274       .  A
C661       C1508   1.485       .  S
O662        C664   1.269       .  A
O663       Ni674   1.916       .  S
C664        O670   1.276       .  A
C664       C1028   1.492       .  S
C665        C980   1.484       .  S
H666        O667   0.966       .  S
O667       Ni675   1.908       .  S
O667       Ni669   1.905       .  S
O667       Ni674   1.896       .  S
O668       Ni669   1.938       .  S
Ni669       O673   1.926       .  S
Ni669       O671   1.925       .  S
O670       Ni675   1.939       .  S
C672        O673   1.273       .  A
C672        C968   1.491       .  S
O677       Ni683   1.922       .  S
O677        C698   1.271       .  A
O678       Ni701   1.937       .  S
O678        C687   1.272       .  A
O679       Ni683   1.913       .  S
O679       Ni701   1.925       .  S
O679       Ni695   1.940       .  S
O679        H702   0.966       .  S
C680        O697   1.283       .  A
C680        O689   1.277       .  A
C680        C917   1.488       .  S
O681       Ni700   1.918       .  S
O681        C687   1.267       .  A
O682       Ni700   1.899       .  S
O682        C684   1.266       .  A
Ni683       O686   1.928       .  S
Ni683       O688   1.902       .  S
C684        O694   1.272       .  A
C684        C944   1.481       .  S
O685       Ni701   1.904       .  S
O685        C691   1.268       .  A
O686        C691   1.271       .  A
C687       C1460   1.487       .  S
O688        C690   1.274       .  A
O689       Ni700   1.913       .  S
C690        O696   1.283       .  A
C690       C1124   1.495       .  S
C691        C932   1.487       .  S
H692        O693   0.966       .  S
O693       Ni701   1.900       .  S
O693       Ni695   1.902       .  S
O693       Ni700   1.900       .  S
O694       Ni695   1.936       .  S
Ni695       O699   1.924       .  S
Ni695       O697   1.933       .  S
O696       Ni701   1.961       .  S
C698        O699   1.274       .  A
C698        C965   1.489       .  S
O703       Ni709   1.928       .  S
O703        C724   1.272       .  A
O704       Ni727   1.931       .  S
O704        C713   1.271       .  A
O705       Ni709   1.909       .  S
O705       Ni727   1.924       .  S
O705       Ni721   1.925       .  S
O705        H728   0.966       .  S
C706        O723   1.284       .  A
C706        O715   1.277       .  A
C706        C929   1.485       .  S
O707       Ni726   1.924       .  S
O707        C713   1.270       .  A
O708       Ni726   1.904       .  S
O708        C710   1.268       .  A
Ni709       O712   1.918       .  S
Ni709       O714   1.906       .  S
C710        O720   1.276       .  A
C710        C905   1.503       .  S
O711       Ni727   1.917       .  S
O711        C717   1.275       .  A
O712        C717   1.274       .  A
C713       C1436   1.484       .  S
O714        C716   1.272       .  A
O715       Ni726   1.911   1_545  S
C716        O722   1.275       .  A
C716       C1076   1.491       .  S
C717        C920   1.489       .  S
H718        O719   0.966       .  S
O719       Ni727   1.905       .  S
O719       Ni721   1.905       .  S
O719       Ni726   1.894       .  S
O720       Ni721   1.950       .  S
Ni721       O725   1.929       .  S
Ni721       O723   1.933   1_565  S
O722       Ni727   1.940       .  S
C724        O725   1.275       .  A
C724       C1013   1.490       .  S
O729       Ni735   1.924       .  S
O729        C750   1.271       .  A
O730       Ni753   1.935       .  S
O730        C739   1.271       .  A
O731       Ni735   1.914       .  S
O731       Ni753   1.929       .  S
O731       Ni747   1.929       .  S
O731        H754   0.967       .  S
C732        O749   1.282       .  A
C732        O741   1.276       .  A
C732        C872   1.482       .  S
O733       Ni752   1.925       .  S
O733        C739   1.269       .  A
O734       Ni752   1.903       .  S
O734        C736   1.269       .  A
Ni735       O738   1.923       .  S
Ni735       O740   1.899       .  S
C736        O746   1.276       .  A
C736        C908   1.503       .  S
O737       Ni753   1.910       .  S
O737        C743   1.272       .  A
O738        C743   1.272       .  A
C739       C1388   1.488       .  S
O740        C742   1.269       .  A
O741       Ni752   1.912   1_565  S
C742        O748   1.279       .  A
C742       C1277   1.499       .  S
C743        C881   1.488       .  S
H744        O745   0.966       .  S
O745       Ni753   1.904       .  S
O745       Ni747   1.907       .  S
O745       Ni752   1.900       .  S
O746       Ni747   1.950       .  S
Ni747       O751   1.921       .  S
Ni747       O749   1.933   1_545  S
O748       Ni753   1.953       .  S
C750        O751   1.272       .  A
C750        C893   1.491       .  S
O755       Ni761   1.929       .  S
O755        C776   1.272       .  A
O756       Ni779   1.936       .  S
O756        C765   1.273       .  A
O757       Ni761   1.911       .  S
O757       Ni779   1.924       .  S
O757       Ni773   1.924       .  S
O757        H780   0.966       .  S
C758        O775   1.283       .  A
C758        O767   1.277       .  A
C758        C884   1.483       .  S
O759       Ni778   1.922       .  S
O759        C765   1.269       .  A
O760       Ni778   1.901       .  S
O760        C762   1.268       .  A
Ni761       O764   1.920       .  S
Ni761       O766   1.905       .  S
C762        O772   1.273       .  A
C762        C941   1.492       .  S
O763       Ni779   1.917       .  S
O763        C769   1.276       .  A
O764        C769   1.273       .  A
C765       C1364   1.487       .  S
O766        C768   1.272       .  A
O767       Ni778   1.914       .  S
C768        O774   1.277       .  A
C768       C1220   1.491       .  S
C769        C869   1.486       .  S
H770        O771   0.966       .  S
O771       Ni779   1.908       .  S
O771       Ni773   1.902       .  S
O771       Ni778   1.898       .  S
O772       Ni773   1.938       .  S
Ni773       O777   1.920       .  S
Ni773       O775   1.936       .  S
O774       Ni779   1.945       .  S
C776        O777   1.272       .  A
C776        C857   1.490       .  S
O781       Ni787   1.929       .  S
O781        C802   1.272       .  A
O782       Ni805   1.940       .  S
O782        C791   1.274       .  A
O783       Ni787   1.912       .  S
O783       Ni805   1.926       .  S
O783       Ni799   1.928       .  S
O783        H806   0.966       .  S
C784        O801   1.282       .  A
C784        O793   1.277       .  A
C784        C833   1.485       .  S
O785       Ni804   1.921       .  S
O785        C791   1.268       .  A
O786       Ni804   1.905       .  S
O786        C788   1.268       .  A
Ni787       O790   1.924       .  S
Ni787       O792   1.902       .  S
C788        O798   1.273       .  A
C788        C956   1.495       .  S
O789       Ni805   1.911       .  S
O789        C795   1.273       .  A
O790        C795   1.273       .  A
C791       C1328   1.488       .  S
O792        C794   1.272       .  A
O793       Ni804   1.915       .  S
C794        O800   1.279       .  A
C794       C1196   1.497       .  S
C795        C845   1.488       .  S
H796        O797   0.966       .  S
O797       Ni805   1.906       .  S
O797       Ni799   1.900       .  S
O797       Ni804   1.898       .  S
O798       Ni799   1.938       .  S
Ni799       O803   1.918       .  S
Ni799       O801   1.929       .  S
O800       Ni805   1.948       .  S
C802        O803   1.271       .  A
C802        C860   1.486       .  S
O807       Ni813   1.928       .  S
O807        C828   1.271       .  A
O808       Ni831   1.933       .  S
O808        C817   1.272       .  A
O809       Ni813   1.914       .  S
O809       Ni831   1.928       .  S
O809       Ni825   1.927       .  S
O809        H832   0.966       .  S
C810        O827   1.282       .  A
C810        O819   1.278       .  A
C810        C848   1.483       .  S
O811       Ni830   1.925       .  S
O811        C817   1.270       .  A
O812       Ni830   1.905       .  S
O812        C814   1.268       .  A
Ni813       O816   1.917       .  S
Ni813       O818   1.908       .  S
C814        O824   1.276       .  A
C814       C1004   1.506       .  S
O815       Ni831   1.916       .  S
O815        C821   1.274       .  A
O816        C821   1.272       .  A
C817       C1316   1.484       .  S
O818        C820   1.272       .  A
O819       Ni830   1.916   1_545  S
C820        O826   1.278       .  A
C820       C1148   1.496       .  S
C821        C836   1.481       .  S
H822        O823   0.966       .  S
O823       Ni831   1.908       .  S
O823       Ni825   1.901       .  S
O823       Ni830   1.897       .  S
O824       Ni825   1.950       .  S
Ni825       O829   1.915       .  S
Ni825       O827   1.931   1_565  S
O826       Ni831   1.949       .  S
C828        O829   1.271       .  A
C828        C896   1.483       .  S
C833        C834   1.403       .  A
C833        C838   1.416       .  A
C834        C835   1.398       .  A
C834        H839   1.083       .  S
C835        C836   1.412       .  A
C835        O840   1.372       .  S
C836        C837   1.402       .  A
C837        C838   1.400       .  A
C837        H841   1.084       .  S
C838        O842   1.372       .  S
O840        H844   0.992       .  S
O842        H843   0.992       .  S
C845        C846   1.411       .  A
C845        C850   1.410       .  A
C846        C847   1.402       .  A
C846        H851   1.083       .  S
C847        C848   1.408       .  A
C847        O852   1.371       .  S
C848        C849   1.406       .  A
C849        C850   1.398       .  A
C849        H853   1.084       .  S
C850        O854   1.372       .  S
O852        H856   0.992       .  S
O854        H855   0.992       .  S
C857        C858   1.410       .  A
C857        C862   1.408       .  A
C858        C859   1.405       .  A
C858        H863   1.084       .  S
C859        C860   1.408       .  A
C859        O864   1.372       .  S
C860        C861   1.407       .  A
C861        C862   1.403       .  A
C861        H865   1.084       .  S
C862        O866   1.370       .  S
O864        H868   0.992       .  S
O866        H867   0.992       .  S
C869        C870   1.402       .  A
C869        C874   1.416       .  A
C870        C871   1.399       .  A
C870        H875   1.084       .  S
C871        C872   1.414       .  A
C871        O876   1.372       .  S
C872        C873   1.401       .  A
C873        C874   1.402       .  A
C873        H877   1.084       .  S
C874        O878   1.372       .  S
O876        H880   0.992       .  S
O878        H879   0.992       .  S
C881        C882   1.410       .  A
C881        C886   1.410       .  A
C882        C883   1.402       .  A
C882        H887   1.083       .  S
C883        C884   1.406       .  A
C883        O888   1.372       .  S
C884        C885   1.407       .  A
C885        C886   1.399       .  A
C885        H889   1.084       .  S
C886        O890   1.372       .  S
O888        H892   0.991       .  S
O890        H891   0.992       .  S
C893        C894   1.411       .  A
C893        C898   1.410   1_545  A
C894        C895   1.402       .  A
C894        H899   1.083       .  S
C895        C896   1.405   1_545  A
C895        O900   1.371       .  S
C896        C897   1.407       .  A
C897        C898   1.405       .  A
C897        H901   1.084       .  S
C898        O902   1.372       .  S
O900        H904   0.992       .  S
O902        H903   0.992       .  S
C905        C906   1.412       .  A
C905        C910   1.415       .  A
C906        C907   1.416   1_665  A
C906        H911   1.083       .  S
C907        C908   1.416       .  A
C907        O912   1.371       .  S
C908        C909   1.406       .  A
C909        C910   1.396   1_445  A
C909        H913   1.083       .  S
C910        O914   1.372       .  S
O912        H916   0.992       .  S
O914        H915   0.992       .  S
C917        C918   1.410       .  A
C917        C922   1.408       .  A
C918        C919   1.400       .  A
C918        H923   1.083       .  S
C919        C920   1.410       .  A
C919        O924   1.372       .  S
C920        C921   1.409       .  A
C921        C922   1.398       .  A
C921        H925   1.083       .  S
C922        O926   1.370       .  S
O924        H928   0.992       .  S
O926        H927   0.992       .  S
C929        C930   1.409       .  A
C929        C934   1.408       .  A
C930        C931   1.398       .  A
C930        H935   1.083       .  S
C931        C932   1.410       .  A
C931        O936   1.372       .  S
C932        C933   1.410       .  A
C933        C934   1.399       .  A
C933        H937   1.083       .  S
C934        O938   1.372       .  S
O936        H940   0.992       .  S
O938        H939   0.992       .  S
C941        C942   1.408       .  A
C941        C946   1.414       .  A
C942        C943   1.395   1_455  A
C942        H947   1.083       .  S
C943        C944   1.407       .  A
C943        O948   1.372       .  S
C944        C945   1.406       .  A
C945        C946   1.409   1_655  A
C945        H949   1.083       .  S
C946        O950   1.371       .  S
O948        H952   0.992       .  S
O950        H951   0.992       .  S
C953        C954   1.409       .  A
C953        C958   1.415       .  A
C954        C955   1.409   1_655  A
C954        H959   1.083       .  S
C955        C956   1.414       .  A
C955        O960   1.371       .  S
C956        C957   1.406       .  A
C957        C958   1.397   1_455  A
C957        H961   1.083       .  S
C958        O962   1.372       .  S
O960        H964   0.992       .  S
O962        H963   0.992       .  S
C965        C966   1.410       .  A
C965        C970   1.407       .  A
C966        C967   1.406       .  A
C966        H971   1.084       .  S
C967        C968   1.409       .  A
C967        O972   1.371       .  S
C968        C969   1.409       .  A
C969        C970   1.403       .  A
C969        H973   1.084       .  S
C970        O974   1.370       .  S
O972        H976   0.992       .  S
O974        H975   0.992       .  S
C977        C978   1.409       .  A
C977        C982   1.409       .  A
C978        C979   1.398       .  A
C978        H983   1.083       .  S
C979        C980   1.410       .  A
C979        O984   1.372       .  S
C980        C981   1.408       .  A
C981        C982   1.397       .  A
C981        H985   1.083       .  S
C982        O986   1.372       .  S
O984        H988   0.992       .  S
O986        H987   0.992       .  S
C989        C990   1.409       .  A
C989        C994   1.410       .  A
C990        C991   1.397       .  A
C990        H995   1.083       .  S
C991        C992   1.409       .  A
C991        O996   1.371       .  S
C992        C993   1.409       .  A
C993        C994   1.399       .  A
C993        H997   1.083       .  S
C994        O998   1.372       .  S
O996       H1000   0.992       .  S
O998        H999   0.992       .  S
C1001      C1002   1.406       .  A
C1001      C1006   1.415   1_545  A
C1002      C1003   1.398   1_645  A
C1002      H1007   1.084       .  S
C1003      C1004   1.417       .  A
C1003      O1008   1.372       .  S
C1004      C1005   1.412       .  A
C1005      C1006   1.415   1_455  A
C1005      H1009   1.083       .  S
C1006      O1010   1.371       .  S
O1008      H1012   0.992   1_565  S
O1010      H1011   0.992       .  S
C1013      C1014   1.402   1_565  A
C1013      C1018   1.415       .  A
C1014      C1015   1.407       .  A
C1014      H1019   1.084       .  S
C1015      C1016   1.416       .  A
C1015      O1020   1.372       .  S
C1016      C1017   1.403   1_545  A
C1017      C1018   1.407       .  A
C1017      H1021   1.083       .  S
C1018      O1022   1.372       .  S
O1020      H1024   0.992       .  S
O1022      H1023   0.992       .  S
C1025      C1026   1.405       .  A
C1025      C1030   1.414       .  A
C1026      C1027   1.395       .  A
C1026      H1031   1.083       .  S
C1027      C1028   1.414       .  A
C1027      O1032   1.372       .  S
C1028      C1029   1.408       .  A
C1029      C1030   1.407       .  A
C1029      H1033   1.083       .  S
C1030      O1034   1.371       .  S
O1032      H1036   0.992       .  S
O1034      H1035   0.992       .  S
C1037      C1038   1.403       .  A
C1037      C1042   1.414       .  A
C1038      C1039   1.398       .  A
C1038      H1043   1.082       .  S
C1039      C1040   1.412       .  A
C1039      O1044   1.372       .  S
C1040      C1041   1.402       .  A
C1041      C1042   1.399       .  A
C1041      H1045   1.084       .  S
C1042      O1046   1.371       .  S
O1044      H1048   0.992       .  S
O1046      H1047   0.992       .  S
C1049      C1050   1.403       .  A
C1049      C1054   1.417       .  A
C1050      C1051   1.399       .  A
C1050      H1055   1.083       .  S
C1051      C1052   1.417       .  A
C1051      O1056   1.372       .  S
C1052      C1053   1.403       .  A
C1053      C1054   1.400       .  A
C1053      H1057   1.083       .  S
C1054      O1058   1.372       .  S
O1056      H1060   0.992       .  S
O1058      H1059   0.992       .  S
C1061      C1062   1.404       .  A
C1061      C1066   1.416       .  A
C1062      C1063   1.394       .  A
C1062      H1067   1.083       .  S
C1063      C1064   1.415       .  A
C1063      O1068   1.372       .  S
C1064      C1065   1.409       .  A
C1065      C1066   1.410       .  A
C1065      H1069   1.083       .  S
C1066      O1070   1.372       .  S
O1068      H1072   0.992       .  S
O1070      H1071   0.992       .  S
C1073      C1074   1.409       .  A
C1073      C1078   1.411       .  A
C1074      C1075   1.409       .  A
C1074      H1079   1.083       .  S
C1075      C1076   1.414       .  A
C1075      O1080   1.371       .  S
C1076      C1077   1.405       .  A
C1077      C1078   1.395       .  A
C1077      H1081   1.084       .  S
C1078      O1082   1.372       .  S
O1080      H1084   0.992       .  S
O1082      H1083   0.992       .  S
C1085      C1086   1.411       .  A
C1085      C1090   1.409       .  A
C1086      C1087   1.402       .  A
C1086      H1091   1.084       .  S
C1087      C1088   1.405       .  A
C1087      O1092   1.371       .  S
C1088      C1089   1.407       .  A
C1089      C1090   1.404       .  A
C1089      H1093   1.084       .  S
C1090      O1094   1.371       .  S
O1092      H1096   0.991       .  S
O1094      H1095   0.992       .  S
C1097      C1098   1.402       .  A
C1097      C1102   1.417       .  A
C1098      C1099   1.397       .  A
C1098      H1103   1.083       .  S
C1099      C1100   1.417       .  A
C1099      O1104   1.371       .  S
C1100      C1101   1.405       .  A
C1101      C1102   1.403       .  A
C1101      H1105   1.083       .  S
C1102      O1106   1.372       .  S
O1104      H1108   0.992       .  S
O1106      H1107   0.992       .  S
C1109      C1110   1.409       .  A
C1109      C1114   1.408       .  A
C1110      C1111   1.400       .  A
C1110      H1115   1.083       .  S
C1111      C1112   1.410       .  A
C1111      O1116   1.372       .  S
C1112      C1113   1.409       .  A
C1113      C1114   1.396       .  A
C1113      H1117   1.083       .  S
C1114      O1118   1.371       .  S
O1116      H1120   0.992       .  S
O1118      H1119   0.992       .  S
C1121      C1122   1.408       .  A
C1121      C1126   1.416       .  A
C1122      C1123   1.408       .  A
C1122      H1127   1.083       .  S
C1123      C1124   1.414       .  A
C1123      O1128   1.371       .  S
C1124      C1125   1.406       .  A
C1125      C1126   1.398       .  A
C1125      H1129   1.083       .  S
C1126      O1130   1.372       .  S
O1128      H1132   0.992       .  S
O1130      H1131   0.992       .  S
C1133      C1134   1.411       .  A
C1133      C1138   1.411       .  A
C1134      C1135   1.403       .  A
C1134      H1139   1.083       .  S
C1135      C1136   1.404       .  A
C1135      O1140   1.371       .  S
C1136      C1137   1.407       .  A
C1137      C1138   1.407       .  A
C1137      H1141   1.084       .  S
C1138      O1142   1.371       .  S
O1140      H1144   0.992       .  S
O1142      H1143   0.991       .  S
C1145      C1146   1.407       .  A
C1145      C1150   1.414       .  A
C1146      C1147   1.398       .  A
C1146      H1151   1.083       .  S
C1147      C1148   1.412       .  A
C1147      O1152   1.372       .  S
C1148      C1149   1.409       .  A
C1149      C1150   1.411       .  A
C1149      H1153   1.083       .  S
C1150      O1154   1.371       .  S
O1152      H1156   0.992       .  S
O1154      H1155   0.992       .  S
C1157      C1158   1.406       .  A
C1157      C1162   1.412       .  A
C1158      C1159   1.410       .  A
C1158      H1163   1.083       .  S
C1159      C1160   1.416       .  A
C1159      O1164   1.371       .  S
C1160      C1161   1.407       .  A
C1161      C1162   1.397       .  A
C1161      H1165   1.083       .  S
C1162      O1166   1.372       .  S
O1164      H1168   0.992       .  S
O1166      H1167   0.992       .  S
C1169      C1170   1.410       .  A
C1169      C1174   1.410       .  A
C1170      C1171   1.400       .  A
C1170      H1175   1.083       .  S
C1171      C1172   1.408       .  A
C1171      O1176   1.371       .  S
C1172      C1173   1.408       .  A
C1173      C1174   1.399       .  A
C1173      H1177   1.083       .  S
C1174      O1178   1.371       .  S
O1176      H1180   0.992       .  S
O1178      H1179   0.992       .  S
C1181      C1182   1.403       .  A
C1181      C1186   1.416       .  A
C1182      C1183   1.397       .  A
C1182      H1187   1.082       .  S
C1183      C1184   1.413       .  A
C1183      O1188   1.372       .  S
C1184      C1185   1.404       .  A
C1185      C1186   1.401       .  A
C1185      H1189   1.084       .  S
C1186      O1190   1.372       .  S
O1188      H1192   0.992       .  S
O1190      H1191   0.992       .  S
C1193      C1194   1.409       .  A
C1193      C1198   1.416       .  A
C1194      C1195   1.408       .  A
C1194      H1199   1.083       .  S
C1195      C1196   1.414       .  A
C1195      O1200   1.371       .  S
C1196      C1197   1.407       .  A
C1197      C1198   1.397       .  A
C1197      H1201   1.083       .  S
C1198      O1202   1.372       .  S
O1200      H1204   0.992       .  S
O1202      H1203   0.992       .  S
C1205      C1206   1.408       .  A
C1205      C1210   1.410       .  A
C1206      C1207   1.409       .  A
C1206      H1211   1.083       .  S
C1207      C1208   1.414       .  A
C1207      O1212   1.371       .  S
C1208      C1209   1.409       .  A
C1209      C1210   1.395       .  A
C1209      H1213   1.083       .  S
C1210      O1214   1.372       .  S
O1212      H1216   0.992       .  S
O1214      H1215   0.992       .  S
C1217      C1218   1.410       .  A
C1217      C1222   1.413       .  A
C1218      C1219   1.409       .  A
C1218      H1223   1.083       .  S
C1219      C1220   1.412       .  A
C1219      O1224   1.371       .  S
C1220      C1221   1.405       .  A
C1221      C1222   1.398       .  A
C1221      H1225   1.084       .  S
C1222      O1226   1.372       .  S
O1224      H1228   0.992       .  S
O1226      H1227   0.992       .  S
C1229      C1230   1.409       .  A
C1229      C1234   1.413       .  A
C1230      C1231   1.411       .  A
C1230      H1235   1.083       .  S
C1231      C1232   1.414       .  A
C1231      O1236   1.371       .  S
C1232      C1233   1.408       .  A
C1233      C1234   1.398       .  A
C1233      H1237   1.083       .  S
C1234      O1238   1.372       .  S
O1236      H1240   0.992       .  S
O1238      H1239   0.992       .  S
C1241      C1242   1.407       .  A
C1241      C1246   1.408       .  A
C1242      C1243   1.406       .  A
C1242      H1247   1.084       .  S
C1243      C1244   1.408       .  A
C1243      O1248   1.371       .  S
C1244      C1245   1.410       .  A
C1245      C1246   1.406       .  A
C1245      H1249   1.084       .  S
C1246      O1250   1.371       .  S
O1248      H1252   0.991       .  S
O1250      H1251   0.992       .  S
C1253      C1254   1.403       .  A
C1253      C1258   1.414       .  A
C1254      C1255   1.400       .  A
C1254      H1259   1.084       .  S
C1255      C1256   1.417       .  A
C1255      O1260   1.371       .  S
C1256      C1257   1.404       .  A
C1257      C1258   1.397       .  A
C1257      H1261   1.082       .  S
C1258      O1262   1.372       .  S
O1260      H1264   0.992       .  S
O1262      H1263   0.992       .  S
C1265      C1266   1.409       .  A
C1265      C1270   1.407       .  A
C1266      C1267   1.401       .  A
C1266      H1271   1.083       .  S
C1267      C1268   1.412       .  A
C1267      O1272   1.372       .  S
C1268      C1269   1.409       .  A
C1269      C1270   1.399       .  A
C1269      H1273   1.083       .  S
C1270      O1274   1.370       .  S
O1272      H1276   0.992       .  S
O1274      H1275   0.992       .  S
C1277      C1278   1.410       .  A
C1277      C1282   1.416       .  A
C1278      C1279   1.411       .  A
C1278      H1283   1.083       .  S
C1279      C1280   1.415       .  A
C1279      O1284   1.371       .  S
C1280      C1281   1.406       .  A
C1281      C1282   1.395       .  A
C1281      H1285   1.083       .  S
C1282      O1286   1.372       .  S
O1284      H1288   0.992       .  S
O1286      H1287   0.992       .  S
C1289      C1290   1.406       .  A
C1289      C1294   1.412       .  A
C1290      C1291   1.409       .  A
C1290      H1295   1.083       .  S
C1291      C1292   1.416       .  A
C1291      O1296   1.371       .  S
C1292      C1293   1.408       .  A
C1293      C1294   1.398       .  A
C1293      H1297   1.083       .  S
C1294      O1298   1.373       .  S
O1296      H1300   0.992       .  S
O1298      H1299   0.992       .  S
C1301      C1302   1.411       .  A
C1301      C1306   1.408       .  A
C1302      C1303   1.404       .  A
C1302      H1307   1.084       .  S
C1303      C1304   1.406       .  A
C1303      O1308   1.371       .  S
C1304      C1305   1.408       .  A
C1305      C1306   1.407       .  A
C1305      H1309   1.084       .  S
C1306      O1310   1.371       .  S
O1308      H1312   0.992       .  S
O1310      H1311   0.991       .  S
C1313      C1314   1.407       .  A
C1313      C1318   1.409       .  A
C1314      C1315   1.412       .  A
C1314      H1319   1.083       .  S
C1315      C1316   1.411       .  A
C1315      O1320   1.371       .  S
C1316      C1317   1.403       .  A
C1317      C1318   1.399       .  A
C1317      H1321   1.084       .  S
C1318      O1322   1.373       .  S
O1320      H1324   0.992       .  S
O1322      H1323   0.992       .  S
C1325      C1326   1.403       .  A
C1325      C1330   1.412       .  A
C1326      C1327   1.400       .  A
C1326      H1331   1.084       .  S
C1327      C1328   1.410       .  A
C1327      O1332   1.373       .  S
C1328      C1329   1.408       .  A
C1329      C1330   1.414       .  A
C1329      H1333   1.083       .  S
C1330      O1334   1.371       .  S
O1332      H1336   0.992       .  S
O1334      H1335   0.992       .  S
C1337      C1338   1.408       .  A
C1337      C1342   1.410       .  A
C1338      C1339   1.400       .  A
C1338      H1343   1.083       .  S
C1339      C1340   1.409       .  A
C1339      O1344   1.372       .  S
C1340      C1341   1.408       .  A
C1341      C1342   1.398       .  A
C1341      H1345   1.083       .  S
C1342      O1346   1.372       .  S
O1344      H1348   0.992       .  S
O1346      H1347   0.992       .  S
C1349      C1350   1.404       .  A
C1349      C1354   1.417       .  A
C1350      C1351   1.400       .  A
C1350      H1355   1.083       .  S
C1351      C1352   1.417       .  A
C1351      O1356   1.372       .  S
C1352      C1353   1.403       .  A
C1353      C1354   1.396       .  A
C1353      H1357   1.083       .  S
C1354      O1358   1.372       .  S
O1356      H1360   0.992       .  S
O1358      H1359   0.992       .  S
C1361      C1362   1.404       .  A
C1361      C1366   1.411       .  A
C1362      C1363   1.398   1_556  A
C1362      H1367   1.084       .  S
C1363      C1364   1.410       .  A
C1363      O1368   1.372       .  S
C1364      C1365   1.407       .  A
C1365      C1366   1.412   1_554  A
C1365      H1369   1.083       .  S
C1366      O1370   1.371       .  S
O1368      H1372   0.992       .  S
O1370      H1371   0.991       .  S
C1373      C1374   1.400       .  A
C1373      C1378   1.412       .  A
C1374      C1375   1.403       .  A
C1374      H1379   1.083       .  S
C1375      C1376   1.416       .  A
C1375      O1380   1.372       .  S
C1376      C1377   1.404       .  A
C1377      C1378   1.405       .  A
C1377      H1381   1.083       .  S
C1378      O1382   1.372       .  S
O1380      H1384   0.992       .  S
O1382      H1383   0.992       .  S
C1385      C1386   1.404       .  A
C1385      C1390   1.412       .  A
C1386      C1387   1.400   1_556  A
C1386      H1391   1.084       .  S
C1387      C1388   1.409       .  A
C1387      O1392   1.373       .  S
C1388      C1389   1.408       .  A
C1389      C1390   1.413   1_554  A
C1389      H1393   1.083       .  S
C1390      O1394   1.371       .  S
O1392      H1396   0.992       .  S
O1394      H1395   0.991       .  S
C1397      C1398   1.401       .  A
C1397      C1402   1.417       .  A
C1398      C1399   1.397       .  A
C1398      H1403   1.083       .  S
C1399      C1400   1.418       .  A
C1399      O1404   1.372       .  S
C1400      C1401   1.404       .  A
C1401      C1402   1.400       .  A
C1401      H1405   1.083       .  S
C1402      O1406   1.372       .  S
O1404      H1408   0.992       .  S
O1406      H1407   0.992       .  S
C1409      C1410   1.410       .  A
C1409      C1414   1.412       .  A
C1410      C1411   1.399       .  A
C1410      H1415   1.083       .  S
C1411      C1412   1.409       .  A
C1411      O1416   1.372       .  S
C1412      C1413   1.408       .  A
C1413      C1414   1.401       .  A
C1413      H1417   1.083       .  S
C1414      O1418   1.371       .  S
O1416      H1420   0.992       .  S
O1418      H1419   0.992       .  S
C1421      C1422   1.409       .  A
C1421      C1426   1.407   1_545  A
C1422      C1423   1.406       .  A
C1422      H1427   1.084       .  S
C1423      C1424   1.409   1_545  A
C1423      O1428   1.371       .  S
C1424      C1425   1.412       .  A
C1425      C1426   1.407       .  A
C1425      H1429   1.084       .  S
C1426      O1430   1.372       .  S
O1428      H1432   0.992       .  S
O1430      H1431   0.992       .  S
C1433      C1434   1.404       .  A
C1433      C1438   1.411       .  A
C1434      C1435   1.396   1_556  A
C1434      H1439   1.084       .  S
C1435      C1436   1.408       .  A
C1435      O1440   1.372       .  S
C1436      C1437   1.408       .  A
C1437      C1438   1.411   1_554  A
C1437      H1441   1.083       .  S
C1438      O1442   1.371       .  S
O1440      H1444   0.992       .  S
O1442      H1443   0.991       .  S
C1445      C1446   1.405       .  A
C1445      C1450   1.414       .  A
C1446      C1447   1.396   1_655  A
C1446      H1451   1.084       .  S
C1447      C1448   1.417   1_565  A
C1447      O1452   1.372       .  S
C1448      C1449   1.412       .  A
C1449      C1450   1.413   1_445  A
C1449      H1453   1.083       .  S
C1450      O1454   1.371       .  S
O1452      H1456   0.992   1_565  S
O1454      H1455   0.992   1_565  S
C1457      C1458   1.403       .  A
C1457      C1462   1.411       .  A
C1458      C1459   1.398   1_556  A
C1458      H1463   1.084       .  S
C1459      C1460   1.411       .  A
C1459      O1464   1.374       .  S
C1460      C1461   1.407       .  A
C1461      C1462   1.412   1_554  A
C1461      H1465   1.083       .  S
C1462      O1466   1.371       .  S
O1464      H1468   0.992       .  S
O1466      H1467   0.992       .  S
C1469      C1470   1.404       .  A
C1469      C1474   1.414       .  A
C1470      C1471   1.400       .  A
C1470      H1475   1.084       .  S
C1471      C1472   1.415       .  A
C1471      O1476   1.372       .  S
C1472      C1473   1.403       .  A
C1473      C1474   1.397       .  A
C1473      H1477   1.082       .  S
C1474      O1478   1.372       .  S
O1476      H1480   0.992       .  S
O1478      H1479   0.992       .  S
C1481      C1482   1.404       .  A
C1481      C1486   1.417       .  A
C1482      C1483   1.400       .  A
C1482      H1487   1.083       .  S
C1483      C1484   1.417       .  A
C1483      O1488   1.372       .  S
C1484      C1485   1.402       .  A
C1485      C1486   1.397       .  A
C1485      H1489   1.082       .  S
C1486      O1490   1.372       .  S
O1488      H1492   0.992       .  S
O1490      H1491   0.992       .  S
C1493      C1494   1.407       .  A
C1493      C1498   1.411       .  A
C1494      C1495   1.410   1_655  A
C1494      H1499   1.083       .  S
C1495      C1496   1.416       .  A
C1495      O1500   1.371       .  S
C1496      C1497   1.407       .  A
C1497      C1498   1.397   1_455  A
C1497      H1501   1.083       .  S
C1498      O1502   1.373       .  S
O1500      H1504   0.992       .  S
O1502      H1503   0.992       .  S
C1505      C1506   1.408       .  A
C1505      C1510   1.410       .  A
C1506      C1507   1.413       .  A
C1506      H1511   1.083       .  S
C1507      C1508   1.411       .  A
C1507      O1512   1.371       .  S
C1508      C1509   1.403       .  A
C1509      C1510   1.398       .  A
C1509      H1513   1.084       .  S
C1510      O1514   1.373       .  S
O1512      H1516   0.992       .  S
O1514      H1515   0.992       .  S
C1517      C1518   1.408       .  A
C1517      C1522   1.415       .  A
C1518      C1519   1.399   1_655  A
C1518      H1523   1.083       .  S
C1519      C1520   1.409       .  A
C1519      O1524   1.373       .  S
C1520      C1521   1.408       .  A
C1521      C1522   1.411   1_455  A
C1521      H1525   1.083       .  S
C1522      O1526   1.371       .  S
O1524      H1528   0.992       .  S
O1526      H1527   0.992       .  S
C1529      C1530   1.407       .  A
C1529      C1534   1.406       .  A
C1530      C1531   1.406       .  A
C1530      H1535   1.084       .  S
C1531      C1532   1.409       .  A
C1531      O1536   1.371       .  S
C1532      C1533   1.411       .  A
C1533      C1534   1.404       .  A
C1533      H1537   1.084       .  S
C1534      O1538   1.372       .  S
O1536      H1540   0.991       .  S
O1538      H1539   0.992       .  S
C1541      C1542   1.408       .  A
C1541      C1546   1.409       .  A
C1542      C1543   1.413       .  A
C1542      H1547   1.083       .  S
C1543      C1544   1.412       .  A
C1543      O1548   1.371       .  S
C1544      C1545   1.403       .  A
C1545      C1546   1.398       .  A
C1545      H1549   1.084       .  S
C1546      O1550   1.372       .  S
O1548      H1552   0.992       .  S
O1550      H1551   0.992       .  S
C1553      C1554   1.403       .  A
C1553      C1558   1.415       .  A
C1554      C1555   1.403       .  A
C1554      H1559   1.083       .  S
C1555      C1556   1.418       .  A
C1555      O1560   1.372       .  S
C1556      C1557   1.403       .  A
C1557      C1558   1.397       .  A
C1557      H1561   1.083       .  S
C1558      O1562   1.372       .  S
O1560      H1564   0.992       .  S
O1562      H1563   0.992       .  S
C1565      C1566   1.404       .  A
C1565      C1570   1.417       .  A
C1566      C1567   1.400       .  A
C1566      H1571   1.083       .  S
C1567      C1568   1.415       .  A
C1567      O1572   1.372       .  S
C1568      C1569   1.402       .  A
C1569      C1570   1.400       .  A
C1569      H1573   1.084       .  S
C1570      O1574   1.372       .  S
O1572      H1576   0.992       .  S
O1574      H1575   0.992       .  S
C1577      C1578   1.408   1_565  A
C1577      C1582   1.410       .  A
C1578      C1579   1.411   1_455  A
C1578      H1583   1.083       .  S
C1579      C1580   1.415   1_545  A
C1579      O1584   1.371       .  S
C1580      C1581   1.408       .  A
C1581      C1582   1.399   1_655  A
C1581      H1585   1.083       .  S
C1582      O1586   1.373       .  S
O1584      H1588   0.992       .  S
O1586      H1587   0.992       .  S
C1589      C1590   1.408       .  A
C1589      C1594   1.407   1_545  A
C1590      C1591   1.404       .  A
C1590      H1595   1.084       .  S
C1591      C1592   1.408   1_545  A
C1591      O1596   1.371       .  S
C1592      C1593   1.408       .  A
C1593      C1594   1.403       .  A
C1593      H1597   1.084       .  S
C1594      O1598   1.372       .  S
O1596      H1600   0.992       .  S
O1598      H1599   0.992       .  S
C1601      C1602   1.404       .  A
C1601      C1606   1.411       .  A
C1602      C1603   1.398       .  A
C1602      H1607   1.084       .  S
C1603      C1604   1.412       .  A
C1603      O1608   1.372       .  S
C1604      C1605   1.408       .  A
C1605      C1606   1.413       .  A
C1605      H1609   1.083       .  S
C1606      O1610   1.370       .  S
O1608      H1612   0.992       .  S
O1610      H1611   0.992       .  S
C1613      C1614   1.410       .  A
C1613      C1618   1.415       .  A
C1614      C1615   1.411       .  A
C1614      H1619   1.083       .  S
C1615      C1616   1.415       .  A
C1615      O1620   1.371       .  S
C1616      C1617   1.406       .  A
C1617      C1618   1.396       .  A
C1617      H1621   1.083       .  S
C1618      O1622   1.372       .  S
O1620      H1624   0.992       .  S
O1622      H1623   0.992       .  S
C1625      C1626   1.409       .  A
C1625      C1630   1.410       .  A
C1626      C1627   1.415       .  A
C1626      H1631   1.083       .  S
C1627      C1628   1.412       .  A
C1627      O1632   1.371       .  S
C1628      C1629   1.405       .  A
C1629      C1630   1.400       .  A
C1629      H1633   1.084       .  S
C1630      O1634   1.372       .  S
O1632      H1636   0.991       .  S
O1634      H1635   0.992       .  S
C1637      C1638   1.410       .  A
C1637      C1642   1.411       .  A
C1638      C1639   1.402       .  A
C1638      H1643   1.083       .  S
C1639      C1640   1.407       .  A
C1639      O1644   1.371       .  S
C1640      C1641   1.406       .  A
C1641      C1642   1.399       .  A
C1641      H1645   1.084       .  S
C1642      O1646   1.372       .  S
O1644      H1648   0.992       .  S
O1646      H1647   0.992       .  S
C1649      C1650   1.410       .  A
C1649      C1654   1.406       .  A
C1650      C1651   1.399       .  A
C1650      H1655   1.083       .  S
C1651      C1652   1.409       .  A
C1651      O1656   1.372       .  S
C1652      C1653   1.412       .  A
C1653      C1654   1.399       .  A
C1653      H1657   1.083       .  S
C1654      O1658   1.371       .  S
O1656      H1660   0.992       .  S
O1658      H1659   0.992       .  S
C1661      C1662   1.406       .  A
C1661      C1666   1.414       .  A
C1662      C1663   1.398       .  A
C1662      H1667   1.083       .  S
C1663      C1664   1.416       .  A
C1663      O1668   1.372       .  S
C1664      C1665   1.409       .  A
C1665      C1666   1.409       .  A
C1665      H1669   1.083       .  S
C1666      O1670   1.371       .  S
O1668      H1672   0.992       .  S
O1670      H1671   0.992       .  S
C1673      C1674   1.408       .  A
C1673      C1678   1.409       .  A
C1674      C1675   1.411   1_556  A
C1674      H1679   1.083       .  S
C1675      C1676   1.411       .  A
C1675      O1680   1.371       .  S
C1676      C1677   1.402       .  A
C1677      C1678   1.397   1_554  A
C1677      H1681   1.084       .  S
C1678      O1682   1.373       .  S
O1680      H1684   0.992       .  S
O1682      H1683   0.992       .  S
C1685      C1686   1.405       .  A
C1685      C1690   1.413       .  A
C1686      C1687   1.394       .  A
C1686      H1691   1.083       .  S
C1687      C1688   1.413       .  A
C1687      O1692   1.372       .  S
C1688      C1689   1.410       .  A
C1689      C1690   1.409       .  A
C1689      H1693   1.083       .  S
C1690      O1694   1.371       .  S
O1692      H1696   0.992       .  S
O1694      H1695   0.992       .  S
C1697      C1698   1.411       .  A
C1697      C1702   1.411       .  A
C1698      C1699   1.404       .  A
C1698      H1703   1.083       .  S
C1699      C1700   1.407       .  A
C1699      O1704   1.371       .  S
C1700      C1701   1.409       .  A
C1701      C1702   1.406       .  A
C1701      H1705   1.084       .  S
C1702      O1706   1.371       .  S
O1704      H1708   0.992       .  S
O1706      H1707   0.992       .  S
C1709      C1710   1.404       .  A
C1709      C1714   1.411       .  A
C1710      C1711   1.396   1_556  A
C1710      H1715   1.084       .  S
C1711      C1712   1.410       .  A
C1711      O1716   1.372       .  S
C1712      C1713   1.407       .  A
C1713      C1714   1.411   1_554  A
C1713      H1717   1.083       .  S
C1714      O1718   1.371       .  S
O1716      H1720   0.992       .  S
O1718      H1719   0.991       .  S
C1721      C1722   1.403       .  A
C1721      C1726   1.415       .  A
C1722      C1723   1.398       .  A
C1722      H1727   1.083       .  S
C1723      C1724   1.414       .  A
C1723      O1728   1.372       .  S
C1724      C1725   1.404       .  A
C1725      C1726   1.402       .  A
C1725      H1729   1.084       .  S
C1726      O1730   1.372       .  S
O1728      H1732   0.992       .  S
O1730      H1731   0.992       .  S
C1733      C1734   1.402       .  A
C1733      C1738   1.415       .  A
C1734      C1735   1.397       .  A
C1734      H1739   1.083       .  S
C1735      C1736   1.416       .  A
C1735      O1740   1.372       .  S
C1736      C1737   1.405       .  A
C1737      C1738   1.400       .  A
C1737      H1741   1.083       .  S
C1738      O1742   1.372       .  S
O1740      H1744   0.992       .  S
O1742      H1743   0.992       .  S
C1745      C1746   1.409       .  A
C1745      C1750   1.413       .  A
C1746      C1747   1.409       .  A
C1746      H1751   1.083       .  S
C1747      C1748   1.413       .  A
C1747      O1752   1.371       .  S
C1748      C1749   1.408       .  A
C1749      C1750   1.399       .  A
C1749      H1753   1.083       .  S
C1750      O1754   1.372       .  S
O1752      H1756   0.992       .  S
O1754      H1755   0.992       .  S
C1757      C1758   1.409       .  A
C1757      C1762   1.408       .  A
C1758      C1759   1.405       .  A
C1758      H1763   1.084       .  S
C1759      C1760   1.409       .  A
C1759      O1764   1.371       .  S
C1760      C1761   1.411       .  A
C1761      C1762   1.407       .  A
C1761      H1765   1.083       .  S
C1762      O1766   1.371       .  S
O1764      H1768   0.992       .  S
O1766      H1767   0.992       .  S
C1769      C1770   1.404       .  A
C1769      C1774   1.411       .  A
C1770      C1771   1.397       .  A
C1770      H1775   1.084       .  S
C1771      C1772   1.408       .  A
C1771      O1776   1.372       .  S
C1772      C1773   1.407       .  A
C1773      C1774   1.411       .  A
C1773      H1777   1.083       .  S
C1774      O1778   1.371       .  S
O1776      H1780   0.992       .  S
O1778      H1779   0.992       .  S
C1781      C1782   1.409       .  A
C1781      C1786   1.416       .  A
C1782      C1783   1.409       .  A
C1782      H1787   1.083       .  S
C1783      C1784   1.415       .  A
C1783      O1788   1.371       .  S
C1784      C1785   1.404       .  A
C1785      C1786   1.396       .  A
C1785      H1789   1.083       .  S
C1786      O1790   1.372       .  S
O1788      H1792   0.992       .  S
O1790      H1791   0.992       .  S
C1793      C1794   1.407       .  A
C1793      C1798   1.408       .  A
C1794      C1795   1.407       .  A
C1794      H1799   1.084       .  S
C1795      C1796   1.413       .  A
C1795      O1800   1.371       .  S
C1796      C1797   1.409       .  A
C1797      C1798   1.395       .  A
C1797      H1801   1.083       .  S
C1798      O1802   1.372       .  S
O1800      H1804   0.992       .  S
O1802      H1803   0.992       .  S
C1805      C1806   1.408       .  A
C1805      C1810   1.410       .  A
C1806      C1807   1.412       .  A
C1806      H1811   1.083       .  S
C1807      C1808   1.411       .  A
C1807      O1812   1.371       .  S
C1808      C1809   1.402       .  A
C1809      C1810   1.399       .  A
C1809      H1813   1.084       .  S
C1810      O1814   1.373       .  S
O1812      H1816   0.991       .  S
O1814      H1815   0.992       .  S
C1817      C1818   1.403       .  A
C1817      C1822   1.416       .  A
C1818      C1819   1.396       .  A
C1818      H1823   1.082       .  S
C1819      C1820   1.416       .  A
C1819      O1824   1.372       .  S
C1820      C1821   1.404       .  A
C1821      C1822   1.400       .  A
C1821      H1825   1.083       .  S
C1822      O1826   1.371       .  S
O1824      H1828   0.992       .  S
O1826      H1827   0.992       .  S
C1829      C1830   1.409       .  A
C1829      C1834   1.410       .  A
C1830      C1831   1.398       .  A
C1830      H1835   1.083       .  S
C1831      C1832   1.410       .  A
C1831      O1836   1.372       .  S
C1832      C1833   1.408       .  A
C1833      C1834   1.397       .  A
C1833      H1837   1.083       .  S
C1834      O1838   1.371       .  S
O1836      H1840   0.992       .  S
O1838      H1839   0.992       .  S
C1841      C1842   1.408       .  A
C1841      C1846   1.414       .  A
C1842      C1843   1.408       .  A
C1842      H1847   1.083       .  S
C1843      C1844   1.415       .  A
C1843      O1848   1.371       .  S
C1844      C1845   1.408       .  A
C1845      C1846   1.399       .  A
C1845      H1849   1.083       .  S
C1846      O1850   1.373       .  S
O1848      H1852   0.992       .  S
O1850      H1851   0.992       .  S
C1853      C1854   1.408       .  A
C1853      C1858   1.414       .  A
C1854      C1855   1.395       .  A
C1854      H1859   1.083       .  S
C1855      C1856   1.409       .  A
C1855      O1860   1.372       .  S
C1856      C1857   1.407       .  A
C1857      C1858   1.409       .  A
C1857      H1861   1.083       .  S
C1858      O1862   1.371       .  S
O1860      H1864   0.992       .  S
O1862      H1863   0.992       .  S
C1865      C1866   1.408       .  A
C1865      C1870   1.412       .  A
C1866      C1867   1.414   1_556  A
C1866      H1871   1.083       .  S
C1867      C1868   1.413       .  A
C1867      O1872   1.370       .  S
C1868      C1869   1.403       .  A
C1869      C1870   1.396   1_554  A
C1869      H1873   1.084       .  S
C1870      O1874   1.372       .  S
O1872      H1876   0.992       .  S
O1874      H1875   0.992       .  S
C1877      C1878   1.409       .  A
C1877      C1882   1.413       .  A
C1878      C1879   1.409       .  A
C1878      H1883   1.083       .  S
C1879      C1880   1.413       .  A
C1879      O1884   1.371       .  S
C1880      C1881   1.407       .  A
C1881      C1882   1.398       .  A
C1881      H1885   1.084       .  S
C1882      O1886   1.372       .  S
O1884      H1888   0.992       .  S
O1886      H1887   0.992       .  S
C1889      C1890   1.406       .  A
C1889      C1894   1.410       .  A
C1890      C1891   1.409       .  A
C1890      H1895   1.083       .  S
C1891      C1892   1.415       .  A
C1891      O1896   1.371       .  S
C1892      C1893   1.407       .  A
C1893      C1894   1.396       .  A
C1893      H1897   1.083       .  S
C1894      O1898   1.372       .  S
O1896      H1900   0.992       .  S
O1898      H1899   0.992       .  S
C1901      C1902   1.407       .  A
C1901      C1906   1.405       .  A
C1902      C1903   1.404       .  A
C1902      H1907   1.084       .  S
C1903      C1904   1.409       .  A
C1903      O1908   1.371       .  S
C1904      C1905   1.409       .  A
C1905      C1906   1.402       .  A
C1905      H1909   1.084       .  S
C1906      O1910   1.370       .  S
O1908      H1912   0.992       .  S
O1910      H1911   0.992       .  S
C1913      C1914   1.409       .  A
C1913      C1918   1.410       .  A
C1914      C1915   1.415   1_556  A
C1914      H1919   1.083       .  S
C1915      C1916   1.413       .  A
C1915      O1920   1.371       .  S
C1916      C1917   1.404       .  A
C1917      C1918   1.398   1_554  A
C1917      H1921   1.084       .  S
C1918      O1922   1.372       .  S
O1920      H1924   0.992       .  S
O1922      H1923   0.992       .  S
C1925      C1926   1.408       .  A
C1925      C1930   1.408       .  A
C1926      C1927   1.398       .  A
C1926      H1931   1.083       .  S
C1927      C1928   1.411       .  A
C1927      O1932   1.372       .  S
C1928      C1929   1.410       .  A
C1929      C1930   1.401       .  A
C1929      H1933   1.083       .  S
C1930      O1934   1.370       .  S
O1932      H1936   0.992       .  S
O1934      H1935   0.992       .  S
C1937      C1938   1.410       .  A
C1937      C1942   1.411       .  A
C1938      C1939   1.398       .  A
C1938      H1943   1.083       .  S
C1939      C1940   1.407       .  A
C1939      O1944   1.372       .  S
C1940      C1941   1.408       .  A
C1941      C1942   1.399       .  A
C1941      H1945   1.083       .  S
C1942      O1946   1.372       .  S
O1944      H1948   0.992   1_545  S
O1946      H1947   0.992       .  S
C1949      C1950   1.408       .  A
C1949      C1954   1.411       .  A
C1950      C1951   1.408       .  A
C1950      H1955   1.083       .  S
C1951      C1952   1.413       .  A
C1951      O1956   1.371       .  S
C1952      C1953   1.406       .  A
C1953      C1954   1.398       .  A
C1953      H1957   1.084       .  S
C1954      O1958   1.372       .  S
O1956      H1960   0.992       .  S
O1958      H1959   0.992       .  S
C1961      C1962   1.409       .  A
C1961      C1966   1.415       .  A
C1962      C1963   1.397       .  A
C1962      H1967   1.083       .  S
C1963      C1964   1.410       .  A
C1963      O1968   1.373       .  S
C1964      C1965   1.408       .  A
C1965      C1966   1.411       .  A
C1965      H1969   1.083       .  S
C1966      O1970   1.371       .  S
O1968      H1972   0.992       .  S
O1970      H1971   0.992       .  S
C1973      C1974   1.402       .  A
C1973      C1978   1.414       .  A
C1974      C1975   1.404       .  A
C1974      H1979   1.083       .  S
C1975      C1976   1.413       .  A
C1975      O1980   1.372       .  S
C1976      C1977   1.401       .  A
C1977      C1978   1.403       .  A
C1977      H1981   1.083       .  S
C1978      O1982   1.372       .  S
O1980      H1984   0.992       .  S
O1982      H1983   0.992       .  S
