geometry optimzed in LAMMPS
_audit_creation_date              2020-12-01 
_audit_creation_method            'lammps2cif' 
_symmetry_space_group_name_H-M    'P1' 
_symmetry_Int_Tables_number       1 
_symmetry_cell_setting            triclinic 
loop_ 
_symmetry_equiv_pos_as_xyz 
  x,y,z 
_cell_length_a                    43.45651686 
_cell_length_b                    36.07370453703565 
_cell_length_c                    41.37253165605679 
_cell_angle_alpha                 90.02581499499041 
_cell_angle_beta                  90.02077741665894 
_cell_angle_gamma                 90.55720046007288 
loop_ 
_atom_site_label 
_atom_site_type_symbol 
_atom_site_fract_x 
_atom_site_fract_y 
_atom_site_fract_z 
_atom_site_charge 
Fe1        Fe  0.38143034  0.86613695  0.33381553     1.65800
Fe2        Fe  0.33619026  0.85866969  0.26929067     1.73200
Fe3        Fe  0.38416343  0.79057755  0.28696507     1.54400
O4          O  0.42845953  0.80551200  0.30162163    -0.82500
O5          O  0.30848135  0.81630476  0.28099321    -0.80800
O6          O  0.42625346  0.86424437  0.31846443    -0.85000
O7          O  0.38684250  0.81759319  0.36268068    -0.79900
O8          O  0.39595722  0.81029825  0.24274428    -0.81600
O9          O  0.31493522  0.88842218  0.30696217    -0.84400
C10         C  0.37970939  0.78326799  0.35851816     0.96400
C11         C  0.44132209  0.83606642  0.30962171     1.03800
O12         O  0.36745967  0.83830525  0.29708510    -1.13400
O13         O  0.36395400  0.90260889  0.25763304    -0.75800
O14         O  0.37691971  0.91771734  0.30829149    -0.79300
O15         O  0.37388505  0.76968928  0.33103771    -0.80000
C16         C  0.37278619  0.92630282  0.27837195     0.95300
O17         O  0.33723203  0.86808978  0.35107972    -0.77900
O18         O  0.35049185  0.82854579  0.22797290    -0.83100
C19         C  0.31341144  0.78293040  0.27383528     0.97900
C20         C  0.37524643  0.81123996  0.22179983     1.03800
O21         O  0.34070402  0.77010656  0.27129205    -0.78800
C22         C  0.31431770  0.88253707  0.33734351     1.02100
Fe23       Fe  0.63469072  0.86346089  0.33228910     1.65800
Fe24       Fe  0.67728628  0.85739158  0.26644703     1.73200
Fe25       Fe  0.63019686  0.78845145  0.28430950     1.54400
O26         O  0.63991744  0.76701070  0.32801116    -0.82500
O27         O  0.66421390  0.82615550  0.22556453    -0.80800
O28         O  0.63024063  0.81459416  0.36109124    -0.85000
O29         O  0.58949932  0.86045140  0.31874799    -0.79900
O30         O  0.67408093  0.77003311  0.26935471    -0.81600
O31         O  0.64571942  0.89594661  0.25556079    -0.84400
C32         C  0.57379108  0.83296105  0.30879016     0.96400
C33         C  0.63555584  0.78010553  0.35587086     1.03800
O34         O  0.64753664  0.83566713  0.29524852    -1.13400
O35         O  0.69807523  0.89060142  0.30286460    -0.75800
O36         O  0.67961760  0.86703387  0.34779725    -0.79300
O37         O  0.58593074  0.80292774  0.29894336    -0.80000
C38         C  0.70108747  0.88377087  0.33288766     0.95300
O39         O  0.63783670  0.91496514  0.30592900    -0.77900
O40         O  0.70671860  0.81726827  0.27749995    -0.83100
C41         C  0.63930226  0.80924396  0.21874342     0.97900
C42         C  0.70148762  0.78361949  0.27069633     1.03800
O43         O  0.61851835  0.80762315  0.23964159    -0.78800
C44         C  0.63931736  0.92134753  0.27528459     1.02100
Fe45       Fe  0.62977684  0.63356771  0.07632116     1.65800
Fe46       Fe  0.67673871  0.63441328  0.00992317     1.73200
Fe47       Fe  0.63809334  0.71272082  0.03106605     1.54400
O48         O  0.59091446  0.70204568  0.03439540    -0.82500
O49         O  0.70509574  0.67794763  0.00461226    -0.80800
O50         O  0.58591923  0.65040310  0.06408408    -0.85000
O51         O  0.63577342  0.67831206  0.10794775    -0.79900
O52         O  0.63411270  0.70434915  0.48282532    -0.81600
O53         O  0.70349196  0.61886978  0.04959277    -0.84400
C54         C  0.63830497  0.71334235  0.10521996     0.96400
C55         C  0.57452683  0.67701167  0.04799175     1.03800
O56         O  0.64798038  0.66021254  0.03902221    -1.13400
O57         O  0.65287587  0.58594738  0.00905945    -0.75800
O58         O  0.62034680  0.58475139  0.05009639    -0.79300
O59         O  0.63949930  0.72895712  0.07806597    -0.80000
C60         C  0.63141530  0.57049826  0.02453048     0.95300
O61         O  0.67243537  0.61550075  0.09263266    -0.77900
O62         O  0.65483134  0.65055937  0.46817384    -0.83100
C63         C  0.70648609  0.71152187  0.01227654     0.97900
C64         C  0.64167542  0.68111094  0.46156452     1.03800
O65         O  0.68441737  0.72834745  0.02611641    -0.78800
C66         C  0.69901572  0.61429436  0.07982909     1.02100
Fe67       Fe  0.38395931  0.63365377  0.08011061     1.65800
Fe68       Fe  0.33481812  0.64033148  0.01586751     1.73200
Fe69       Fe  0.38001055  0.71457201  0.03716386     1.54400
O70         O  0.38170598  0.72838775  0.08449575    -0.82500
O71         O  0.35558797  0.65789649  0.47458999    -0.80800
O72         O  0.37869549  0.67679447  0.11345459    -0.85000
O73         O  0.42886637  0.65024006  0.06882222    -0.79900
O74         O  0.33543718  0.73392114  0.03596459    -0.81600
O75         O  0.35699996  0.59074068  0.01151709    -0.84400
C76         C  0.44131610  0.67560242  0.05165171     0.96400
C77         C  0.37927187  0.71198337  0.11117373     1.03800
O78         O  0.36648163  0.66274877  0.04419500    -1.13400
O79         O  0.30860014  0.62286316  0.05548190    -0.75800
O80         O  0.34091657  0.61441872  0.09605543    -0.79300
O81         O  0.42593048  0.70040449  0.03726337    -0.80000
C82         C  0.31360694  0.61454081  0.08488837     0.95300
O83         O  0.39134885  0.58694965  0.05105605    -0.77900
O84         O  0.30865871  0.68609227  0.01593743    -0.83100
C85         C  0.37029995  0.68786174  0.46838058     0.97900
C86         C  0.31095680  0.71941186  0.02474589     1.03800
O87         O  0.38008659  0.70934969  0.49013667    -0.78800
C88         C  0.37864796  0.57404993  0.02563003     1.02100
Fe89       Fe  0.13646798  0.86727798  0.41728397     1.65800
Fe90       Fe  0.18051550  0.86308834  0.48319694     1.73200
Fe91       Fe  0.13229580  0.79341355  0.46598864     1.54400
O92         O  0.08806460  0.80652894  0.45040742    -0.82500
O93         O  0.20855474  0.82100334  0.47281212    -0.80800
O94         O  0.09118146  0.86328929  0.42944984    -0.85000
O95         O  0.13373801  0.81817435  0.38904758    -0.79900
O96         O  0.11986088  0.81714086  0.01029577    -0.81600
O97         O  0.20215040  0.89427074  0.44645008    -0.84400
C98         C  0.13870857  0.78370221  0.39441947     0.96400
C99         C  0.07568503  0.83572976  0.43928804     1.03800
O100        O  0.14965490  0.84098357  0.45492810    -1.13400
O101        O  0.15208981  0.90565195  0.49350700    -0.75800
O102        O  0.13657797  0.91827624  0.44341327    -0.79300
O103        O  0.14259882  0.77066586  0.42246147    -0.80000
C104        C  0.13893431  0.92691128  0.47351915     0.95300
O105        O  0.18126365  0.87217814  0.40200651    -0.77900
O106        O  0.16557368  0.83532045  0.02502064    -0.83100
C107        C  0.20296038  0.78763476  0.48029210     0.97900
C108        C  0.14054415  0.81822166  0.03132256     1.03800
O109        O  0.17549687  0.77464340  0.48232774    -0.78800
C110        C  0.20370640  0.88751368  0.41631387     1.02100
Fe111      Fe  0.88309367  0.87037275  0.40781367     1.65800
Fe112      Fe  0.83723868  0.86110267  0.47217308     1.73200
Fe113      Fe  0.88571995  0.79364149  0.45364176     1.54400
O114        O  0.87700501  0.77352233  0.40905624    -0.82500
O115        O  0.85011953  0.83001408  0.01376471    -0.80800
O116        O  0.88565619  0.82265922  0.37720053    -0.85000
O117        O  0.92854971  0.86577741  0.42115163    -0.79900
O118        O  0.84196630  0.77331322  0.46682859    -0.81600
O119        O  0.86539317  0.90355289  0.48518487    -0.84400
C120        C  0.94337163  0.83826763  0.43185351     0.96400
C121        C  0.88044688  0.78782704  0.38147872     1.03800
O122        O  0.86890311  0.84153811  0.44396960    -1.13400
O123        O  0.81689074  0.89418144  0.43652275    -0.75800
O124        O  0.83836852  0.87592553  0.39142335    -0.79300
O125        O  0.93032456  0.80844294  0.44114054    -0.80000
C126        C  0.81546587  0.88934967  0.40623230     0.95300
O127        O  0.88220878  0.92024011  0.43647511    -0.77900
O128        O  0.80904597  0.81924328  0.45914919    -0.83100
C129        C  0.87485799  0.81299619  0.02024882     0.97900
C130        C  0.81449165  0.78547386  0.46465580     1.03800
O131        O  0.89610666  0.81298154  0.99988847    -0.78800
C132        C  0.87814565  0.92717217  0.46686093     1.02100
Fe133      Fe  0.88039035  0.63252743  0.15956945     1.65800
Fe134      Fe  0.83476113  0.63758006  0.22697231     1.73200
Fe135      Fe  0.87853361  0.71253175  0.20410408     1.54400
O136        O  0.92466752  0.69817021  0.19972544    -0.82500
O137        O  0.80716159  0.68168247  0.22674631    -0.80800
O138        O  0.92568050  0.64584579  0.17054631    -0.85000
O139        O  0.87704785  0.67719030  0.12729626    -0.79900
O140        O  0.88215523  0.70756110  0.25240581    -0.81600
O141        O  0.80758916  0.61664035  0.18903581    -0.84400
C142        C  0.87629311  0.71231352  0.13019675     0.96400
C143        C  0.93911327  0.67186999  0.18601669     1.03800
O144        O  0.86473017  0.66087218  0.19701287    -1.13400
O145        O  0.85934094  0.59042668  0.23157381    -0.75800
O146        O  0.88655333  0.58352487  0.18664940    -0.79300
O147        O  0.87694118  0.72787996  0.15729841    -0.80000
C148        C  0.87803569  0.57238099  0.21454184     0.95300
O149        O  0.83629913  0.61822739  0.14440082    -0.77900
O150        O  0.85571053  0.65819220  0.26923624    -0.83100
C151        C  0.80908439  0.71563864  0.22006761     0.97900
C152        C  0.87139825  0.68760121  0.27468138     1.03800
O153        O  0.83352789  0.73130349  0.20954533    -0.78800
C154        C  0.81048045  0.61434726  0.15845153     1.02100
Fe155      Fe  0.13360237  0.63590064  0.16729964     1.65800
Fe156      Fe  0.17866423  0.64159563  0.23276608     1.73200
Fe157      Fe  0.13157810  0.71257884  0.21492862     1.54400
O158        O  0.13887571  0.73215202  0.16947426    -0.82500
O159        O  0.16391103  0.66866564  0.27464587    -0.80800
O160        O  0.13285301  0.68298721  0.13771215    -0.85000
O161        O  0.08738745  0.64256219  0.17917693    -0.79900
O162        O  0.17539930  0.73232186  0.22753843    -0.81600
O163        O  0.15057180  0.59793688  0.24337407    -0.84400
C164        C  0.07287415  0.67004107  0.19090354     0.96400
C165        C  0.13661008  0.71781534  0.14173984     1.03800
O166        O  0.14738966  0.66340560  0.20501284    -1.13400
O167        O  0.20103970  0.61175194  0.19599950    -0.75800
O168        O  0.17861727  0.62938146  0.15109237    -0.79300
O169        O  0.08653899  0.69800207  0.20331816    -0.80000
C170        C  0.20200411  0.61681233  0.16561805     0.95300
O171        O  0.13345578  0.58515317  0.19356687    -0.77900
O172        O  0.20729569  0.68438090  0.22299952    -0.83100
C173        C  0.14128416  0.68869673  0.28262350     0.97900
C174        C  0.20233409  0.71851038  0.22729651     1.03800
O175        O  0.12201109  0.69885794  0.26171062    -0.78800
C176        C  0.13840527  0.57595986  0.22312726     1.02100
Fe177      Fe  0.62646369  0.36481544  0.41524447     1.65800
Fe178      Fe  0.67218917  0.36076588  0.47990299     1.73200
Fe179      Fe  0.62783922  0.28815723  0.45968236     1.54400
O180        O  0.58326119  0.29796683  0.44331567    -0.82500
O181        O  0.70246236  0.32020116  0.47018461    -0.80800
O182        O  0.58213824  0.35816742  0.43138747    -0.85000
O183        O  0.62243376  0.31623938  0.38639776    -0.79900
O184        O  0.61507153  0.30403966  0.00492543    -0.81600
O185        O  0.69341339  0.39196193  0.44228184    -0.84400
C186        C  0.63200350  0.28283501  0.38869825     0.96400
C187        C  0.56871991  0.32788212  0.43836448     1.03800
O188        O  0.64219513  0.33788916  0.45143201    -1.13400
O189        O  0.64264987  0.40254853  0.49071673    -0.75800
O190        O  0.62710836  0.41580365  0.44098882    -0.79300
O191        O  0.64176915  0.27045423  0.41529490    -0.80000
C192        C  0.62976886  0.42432248  0.47097364     0.95300
O193        O  0.67086740  0.37205326  0.39764753    -0.77900
O194        O  0.65715551  0.33196836  0.02234294    -0.83100
C195        C  0.69741379  0.28688660  0.47798243     0.97900
C196        C  0.63459320  0.30955315  0.02689310     1.03800
O197        O  0.67065067  0.27223030  0.47781315    -0.78800
C198        C  0.69403721  0.38668645  0.41172760     1.02100
Fe199      Fe  0.37878240  0.36883509  0.41927231     1.65800
Fe200      Fe  0.33273697  0.36216824  0.48597575     1.73200
Fe201      Fe  0.37600025  0.28820169  0.46264000     1.54400
O202        O  0.37707811  0.27440181  0.41501982    -0.82500
O203        O  0.35615825  0.34479644  0.02693143    -0.80800
O204        O  0.37183501  0.32567597  0.38642053    -0.85000
O205        O  0.42345743  0.35226697  0.42782006    -0.79900
O206        O  0.33092876  0.26873787  0.46455024    -0.81600
O207        O  0.35530284  0.41202005  0.48880117    -0.84400
C208        C  0.43655434  0.32771262  0.44485815     0.96400
C209        C  0.37326164  0.29059940  0.38841053     1.03800
O210        O  0.36280008  0.33986827  0.45617396    -1.13400
O211        O  0.30469004  0.37857308  0.44765431    -0.75800
O212        O  0.33555543  0.38774137  0.40570186    -0.79300
O213        O  0.42202880  0.30344256  0.46131960    -0.80000
C214        C  0.30875274  0.38638533  0.41797043     0.95300
O215        O  0.38804035  0.41557506  0.44763453    -0.77900
O216        O  0.30655777  0.31617932  0.48743917    -0.83100
C217        C  0.36894166  0.31387722  0.03297494     0.97900
C218        C  0.30737346  0.28331097  0.47737059     1.03800
O219        O  0.37808150  0.29228494  0.01105798    -0.78800
C220        C  0.37639141  0.42866010  0.47339122     1.02100
Fe221      Fe  0.37521814  0.13322151  0.16663217     1.65800
Fe222      Fe  0.33111970  0.14011464  0.23221060     1.73200
Fe223      Fe  0.37762453  0.20994954  0.21296933     1.54400
O224        O  0.42213593  0.19737585  0.19655296    -0.82500
O225        O  0.30233381  0.18130253  0.22082235    -0.80800
O226        O  0.42085442  0.13839712  0.18038799    -0.85000
O227        O  0.37873137  0.18174498  0.13739634    -0.79900
O228        O  0.39105535  0.19187754  0.25728833    -0.81600
O229        O  0.30887352  0.10849266  0.19587587    -0.84400
C230        C  0.37143802  0.21588239  0.14147122     0.96400
C231        C  0.43572576  0.16759691  0.18821837     1.03800
O232        O  0.36145223  0.16125723  0.20342461    -1.13400
O233        O  0.36062379  0.09870540  0.24342871    -0.75800
O234        O  0.37282882  0.08196360  0.19310658    -0.79300
O235        O  0.36535744  0.22946773  0.16888752    -0.80000
C236        C  0.36922486  0.07444034  0.22333033     0.95300
O237        O  0.33022708  0.12766029  0.15033190    -0.77900
O238        O  0.34605106  0.17115350  0.27283916    -0.83100
C239        C  0.30715294  0.21406595  0.23012132     0.97900
C240        C  0.37038627  0.19006143  0.27840177     1.03800
O241        O  0.33432306  0.22826773  0.23105958    -0.78800
C242        C  0.30715094  0.11471276  0.16557736     1.02100
Fe243      Fe  0.62847980  0.12866948  0.16503119     1.65800
Fe244      Fe  0.67267645  0.13255006  0.23141177     1.73200
Fe245      Fe  0.63042174  0.20509722  0.20939763     1.54400
O246        O  0.64582725  0.22142862  0.16496974    -0.82500
O247        O  0.65607201  0.16234601  0.27236833    -0.80800
O248        O  0.62361035  0.17700021  0.13668131    -0.85000
O249        O  0.58345232  0.13402431  0.18056317    -0.79900
O250        O  0.67354760  0.22157882  0.22815426    -0.81600
O251        O  0.64204682  0.09052759  0.24009204    -0.84400
C252        C  0.57020718  0.16464494  0.18656045     0.96400
C253        C  0.63476330  0.20980737  0.13862076     1.03800
O254        O  0.64379637  0.15542714  0.20205153    -1.13400
O255        O  0.69516150  0.10375245  0.19315842    -0.75800
O256        O  0.67329723  0.12460177  0.14842360    -0.79300
O257        O  0.58553097  0.19439764  0.19221768    -0.80000
C258        C  0.69660067  0.11144470  0.16284779     0.95300
O259        O  0.63097501  0.07672226  0.18895045    -0.77900
O260        O  0.70436677  0.17283639  0.22460987    -0.83100
C261        C  0.63335281  0.18428350  0.27633068     0.97900
C262        C  0.69994516  0.20667746  0.23008349     1.03800
O263        O  0.61467286  0.19014446  0.25374101    -0.78800
C264        C  0.63350282  0.06756387  0.21874639     1.02100
Fe265      Fe  0.87479863  0.37290006  0.33093518     1.65800
Fe266      Fe  0.83019864  0.36639181  0.26435084     1.73200
Fe267      Fe  0.87652917  0.29671694  0.28491224     1.54400
O268        O  0.92108235  0.30891331  0.30140933    -0.82500
O269        O  0.80065492  0.32377929  0.27251797    -0.80800
O270        O  0.92048547  0.36727087  0.31861629    -0.85000
O271        O  0.87598612  0.32477190  0.36037894    -0.79900
O272        O  0.89090599  0.31460309  0.24077281    -0.81600
O273        O  0.80678276  0.39585078  0.30131090    -0.84400
C274        C  0.86815916  0.29065643  0.35695402     0.96400
C275        C  0.93496234  0.33853362  0.31013247     1.03800
O276        O  0.86046724  0.34533249  0.29372772    -1.13400
O277        O  0.85894152  0.41000983  0.25495019    -0.75800
O278        O  0.87634589  0.42326493  0.30432960    -0.79300
O279        O  0.86305397  0.27745218  0.32914595    -0.80000
C280        C  0.87346894  0.43120972  0.27424447     0.95300
O281        O  0.82990259  0.37986773  0.34657435    -0.77900
O282        O  0.84720886  0.33703195  0.22317659    -0.83100
C283        C  0.80669365  0.29041157  0.26609156     0.97900
C284        C  0.87146198  0.31784612  0.21853169     1.03800
O285        O  0.83397397  0.27762021  0.26642970    -0.78800
C286        C  0.80629865  0.39191317  0.33199327     1.02100
Fe287      Fe  0.12962386  0.36940181  0.33460656     1.65800
Fe288      Fe  0.17424060  0.36142225  0.26994869     1.73200
Fe289      Fe  0.12614478  0.29316820  0.28751088     1.54400
O290        O  0.13696207  0.27300901  0.33162754    -0.82500
O291        O  0.15973311  0.33119322  0.22870816    -0.80800
O292        O  0.12398737  0.32073390  0.36337091    -0.85000
O293        O  0.08432658  0.36634558  0.31950493    -0.79900
O294        O  0.16944959  0.27365824  0.27023306    -0.81600
O295        O  0.14462495  0.40232822  0.25864251    -0.84400
C296        C  0.06891699  0.33782811  0.31095562     0.96400
C297        C  0.13082365  0.28647939  0.35906311     1.03800
O298        O  0.14337225  0.34089532  0.29806056    -1.13400
O299        O  0.19617828  0.39257660  0.30707621    -0.75800
O300        O  0.17416867  0.37283537  0.35209150    -0.79300
O301        O  0.08174453  0.30748442  0.30283937    -0.80000
C302        C  0.19746128  0.38595035  0.33740243     0.95300
O303        O  0.13461902  0.42091880  0.30857414    -0.77900
O304        O  0.20225911  0.31957612  0.28139820    -0.83100
C305        C  0.13501709  0.31341639  0.22240379     0.97900
C306        C  0.19687769  0.28712965  0.27154644     1.03800
O307        O  0.11396486  0.31197298  0.24308186    -0.78800
C308        C  0.13798537  0.42782465  0.27820169     1.02100
Fe309      Fe  0.12659491  0.13475483  0.08112659     1.65800
Fe310      Fe  0.17409158  0.14130041  0.01557831     1.73200
Fe311      Fe  0.12967903  0.21516201  0.03687209     1.54400
O312        O  0.08366060  0.19988602  0.03879162    -0.82500
O313        O  0.19980668  0.18723127  0.01372609    -0.80800
O314        O  0.08187652  0.14987145  0.07086148    -0.85000
O315        O  0.13217483  0.17911222  0.11356889    -0.79900
O316        O  0.12587113  0.20893000  0.48757958    -0.81600
O317        O  0.20138209  0.12541835  0.05490777    -0.84400
C318        C  0.13144447  0.21429683  0.11106571     0.96400
C319        C  0.06896153  0.17480004  0.05410251     1.03800
O320        O  0.14318412  0.16363473  0.04434505    -1.13400
O321        O  0.15242875  0.09131162  0.01293083    -0.75800
O322        O  0.11886394  0.08671134  0.05314265    -0.79300
O323        O  0.12883516  0.22999007  0.08410724    -0.80000
C324        C  0.13140954  0.07390973  0.02766070     0.95300
O325        O  0.16962538  0.11704939  0.09627865    -0.77900
O326        O  0.14944580  0.15730403  0.47198994    -0.83100
C327        C  0.19848766  0.22060560  0.02210137     0.97900
C328        C  0.13531526  0.18733774  0.46583462     1.03800
O329        O  0.17460768  0.23543988  0.03401646    -0.78800
C330        C  0.19664549  0.11776711  0.08457101     1.02100
Fe331      Fe  0.87852427  0.13591614  0.07947522     1.65800
Fe332      Fe  0.83154465  0.13938421  0.01574947     1.73200
Fe333      Fe  0.87643018  0.21232456  0.03469404     1.54400
O334        O  0.86487425  0.23049942  0.07967457    -0.82500
O335        O  0.84289039  0.16863079  0.47503781    -0.80800
O336        O  0.88340280  0.18445040  0.10835714    -0.85000
O337        O  0.92291437  0.14223446  0.06298592    -0.79900
O338        O  0.83246278  0.22791984  0.01901236    -0.81600
O339        O  0.86066531  0.09776452  0.00419270    -0.84400
C340        C  0.93631823  0.17235034  0.05518880     0.96400
C341        C  0.87532645  0.21846017  0.10600334     1.03800
O342        O  0.86238365  0.16255963  0.04332857    -1.13400
O343        O  0.81134554  0.10828122  0.05398882    -0.75800
O344        O  0.83420915  0.13001594  0.09760062    -0.79300
O345        O  0.92166617  0.20193103  0.04889531    -0.80000
C346        C  0.81064423  0.11572917  0.08425587     0.95300
O347        O  0.87702666  0.08462885  0.05373715    -0.77900
O348        O  0.80130318  0.17921590  0.02636359    -0.83100
C349        C  0.86559827  0.19049823  0.46925931     0.97900
C350        C  0.80588215  0.21271671  0.01926381     1.03800
O351        O  0.88630594  0.19527648  0.49015383    -0.78800
C352        C  0.87329173  0.07579723  0.02381054     1.02100
C353        C  0.98648687  0.15103696  0.03216461    -0.02700
C354        C  0.97026828  0.17339194  0.05426071     0.07000
C355        C  0.98659548  0.19638504  0.07599027    -0.02800
C356        C  0.01896340  0.19721019  0.07549670    -0.02800
C357        C  0.03511217  0.17505322  0.05332274     0.07100
C358        C  0.01890504  0.15181602  0.03177626    -0.03000
Br359      Br  0.04131303  0.12088032  0.00205266    -0.01500
Br360      Br  0.96435463  0.11997003  0.00196599    -0.01600
Br361      Br  0.04134627  0.22763566  0.10604087    -0.01600
Br362      Br  0.96463719  0.22505927  0.10777595    -0.01600
C363        C  0.14561718  0.30007553  0.16376570    -0.02700
C364        C  0.13288966  0.28889704  0.19350144     0.07000
C365        C  0.12049805  0.25241610  0.19647702    -0.02800
C366        C  0.11945058  0.22838721  0.16961530    -0.02800
C367        C  0.13326552  0.23898899  0.14009949     0.07100
C368        C  0.14704598  0.27492165  0.13771870    -0.03000
Br369      Br  0.16977741  0.29023707  0.09967835    -0.01500
Br370      Br  0.15996228  0.35061342  0.15807434    -0.01600
Br371      Br  0.09729848  0.18179553  0.17350080    -0.01600
Br372      Br  0.10669204  0.23310498  0.23776643    -0.01600
C373        C  0.15935696  0.24218412  0.39389838    -0.02700
C374        C  0.13147958  0.25987226  0.38622468     0.07000
C375        C  0.10382587  0.24677241  0.40006141    -0.02800
C376        C  0.10439632  0.21820014  0.42329353    -0.02800
C377        C  0.13256763  0.20216874  0.43264425     0.07100
C378        C  0.15982098  0.21289692  0.41643274    -0.03000
Br379      Br  0.19841053  0.18967762  0.42684498    -0.01500
Br380      Br  0.19737663  0.26009046  0.37512371    -0.01600
Br381      Br  0.06663407  0.20130626  0.44323889    -0.01600
Br382      Br  0.06513049  0.26759733  0.38692424    -0.01600
C383        C  0.86966387  0.30754674  0.15777583    -0.02700
C384        C  0.87534521  0.29405151  0.18907811     0.07000
C385        C  0.88397161  0.25635493  0.19274626    -0.02800
C386        C  0.88587144  0.23243455  0.16578023    -0.02800
C387        C  0.87779178  0.24500823  0.13442879     0.07100
C388        C  0.87192738  0.28384337  0.13057227    -0.03000
Br389      Br  0.87013476  0.30723540  0.08843081    -0.01500
Br390      Br  0.85856200  0.35887194  0.15201760    -0.01600
Br391      Br  0.90162484  0.18303269  0.17312952    -0.01600
Br392      Br  0.89087230  0.23528092  0.23523388    -0.01600
C393        C  0.86190225  0.22539367  0.38184219    -0.02700
C394        C  0.86575389  0.26474879  0.38582133     0.07000
C395        C  0.86817512  0.27865711  0.41790403    -0.02800
C396        C  0.86969460  0.25418759  0.44449025    -0.02800
C397        C  0.86583734  0.21537352  0.44030021     0.07100
C398        C  0.86125483  0.20138342  0.40896660    -0.03000
Br399      Br  0.85584556  0.14852777  0.40314700    -0.01500
Br400      Br  0.85760622  0.20193688  0.33984523    -0.01600
Br401      Br  0.87675155  0.27519154  0.48704197    -0.01600
Br402      Br  0.86733088  0.33133601  0.42724752    -0.01600
C403        C  0.98578473  0.33095771  0.28187309    -0.02700
C404        C  0.96925506  0.33961129  0.31023614     0.07000
C405        C  0.98567182  0.35012942  0.33834807    -0.02800
C406        C  0.01820113  0.35030949  0.33846011    -0.02800
C407        C  0.03467973  0.33978036  0.31051126     0.07100
C408        C  0.01825003  0.33107121  0.28200941    -0.03000
Br409      Br  0.04014664  0.32208687  0.24224092    -0.01500
Br410      Br  0.96411424  0.32149453  0.24194948    -0.01600
Br411      Br  0.04002497  0.36419307  0.37736518    -0.01600
Br412      Br  0.96370704  0.36313945  0.37725711    -0.01600
C413        C  0.75205469  0.10448242  0.09010862    -0.02700
C414        C  0.78167497  0.10862456  0.10449057     0.07000
C415        C  0.78297650  0.10858199  0.13899972    -0.02800
C416        C  0.75569619  0.10908670  0.15802535    -0.02800
C417        C  0.72615013  0.10599449  0.14353316     0.07100
C418        C  0.72508200  0.10113481  0.10940971    -0.03000
Br419      Br  0.68674345  0.08770435  0.08838326    -0.01500
Br420      Br  0.74670988  0.10570871  0.04364416    -0.01600
Br421      Br  0.75990481  0.11633279  0.20416034    -0.01600
Br422      Br  0.82202729  0.10660682  0.16155047    -0.01600
C423        C  0.74699965  0.24117267  0.21532040    -0.02700
C424        C  0.72671432  0.22883796  0.23941282     0.07000
C425        C  0.73401376  0.23392263  0.27236606    -0.02800
C426        C  0.76081465  0.25339005  0.28112637    -0.02800
C427        C  0.78083026  0.26644321  0.25699406     0.07100
C428        C  0.77389657  0.26036673  0.22406851    -0.03000
Br429      Br  0.79989297  0.27970819  0.19054082    -0.01500
Br430      Br  0.73796355  0.23101381  0.17035975    -0.01600
Br431      Br  0.77013483  0.26268231  0.32612162    -0.01600
Br432      Br  0.70865963  0.21259615  0.30569943    -0.01600
C433        C  0.48736535  0.18063648  0.21414195    -0.02700
C434        C  0.47017124  0.16702335  0.18756609     0.07000
C435        C  0.48614495  0.15295163  0.16042667    -0.02800
C436        C  0.51870506  0.15248334  0.15999278    -0.02800
C437        C  0.53581953  0.16599250  0.18664857     0.07100
C438        C  0.51986711  0.18067668  0.21346855    -0.03000
Br439      Br  0.54228199  0.20001252  0.25016117    -0.01500
Br440      Br  0.46665054  0.19677752  0.25288380    -0.01600
Br441      Br  0.53988294  0.13567646  0.12171241    -0.01600
Br442      Br  0.46368950  0.13561103  0.12294878    -0.01600
C443        C  0.22305096  0.12442463  0.13942676    -0.02700
C444        C  0.22369959  0.11146898  0.10693589     0.07000
C445        C  0.25101089  0.09428835  0.09593616    -0.02800
C446        C  0.27759197  0.09301369  0.11586918    -0.02800
C447        C  0.27743075  0.10821997  0.14739821     0.07100
C448        C  0.24913849  0.12125585  0.15970805    -0.03000
Br449      Br  0.24524862  0.13529138  0.20449362    -0.01500
Br450      Br  0.18784200  0.15048578  0.15643275    -0.01600
Br451      Br  0.31379180  0.06769636  0.10082110    -0.01600
Br452      Br  0.25228300  0.07145802  0.05375769    -0.01600
C453        C  0.24429713  0.28513630  0.23769818    -0.02700
C454        C  0.22365889  0.26681695  0.25914134     0.07000
C455        C  0.23092880  0.23169994  0.27127046    -0.02800
C456        C  0.25932637  0.21574030  0.26342012    -0.02800
C457        C  0.28001532  0.23409647  0.24204675     0.07100
C458        C  0.27260472  0.26907522  0.22966793    -0.03000
Br459      Br  0.30089859  0.29479759  0.20130048    -0.01500
Br460      Br  0.23325895  0.33135659  0.21726319    -0.01600
Br461      Br  0.27050489  0.16978311  0.28421002    -0.01600
Br462      Br  0.20227738  0.20567437  0.29901046    -0.01600
C463        C  0.35577640  0.23156904  0.36147760    -0.02700
C464        C  0.37074419  0.26659815  0.35918123     0.07000
C465        C  0.38526961  0.27653682  0.32991275    -0.02800
C466        C  0.38492453  0.25176556  0.30351976    -0.02800
C467        C  0.37219427  0.21539485  0.30686815     0.07100
C468        C  0.35810349  0.20546403  0.33632690    -0.03000
Br469      Br  0.34330209  0.15540730  0.34335941    -0.01500
Br470      Br  0.32944376  0.21985616  0.39781487    -0.01600
Br471      Br  0.40025044  0.27001400  0.26244958    -0.01600
Br472      Br  0.40645062  0.32374286  0.32559003    -0.01600
C473        C  0.39856694  0.28336076  0.07692035    -0.02700
C474        C  0.37054517  0.29847060  0.06613639     0.07000
C475        C  0.34286806  0.28735973  0.08141483    -0.02800
C476        C  0.34307442  0.25923355  0.10512709    -0.02800
C477        C  0.37092784  0.24222832  0.11404049     0.07100
C478        C  0.39878348  0.25534923  0.10067208    -0.03000
Br479      Br  0.43734789  0.23538232  0.11530947    -0.01500
Br480      Br  0.43672912  0.30121484  0.05877125    -0.01600
Br481      Br  0.30489753  0.24234651  0.12420127    -0.01600
Br482      Br  0.30420434  0.30849639  0.06823186    -0.01600
C483        C  0.25180990  0.22831189  0.52515282    -0.02700
C484        C  0.22632187  0.24167185  0.01485771     0.07000
C485        C  0.22550957  0.26688073  0.98899576    -0.02800
C486        C  0.25284367  0.27640947  0.97300750    -0.02800
C487        C  0.27941281  0.26216006  0.48360203     0.07100
C488        C  0.27952108  0.23749256  0.50981141    -0.03000
Br489      Br  0.31777036  0.21746158  0.52548632    -0.01500
Br490      Br  0.25195545  0.19594303  0.56228370    -0.01600
Br491      Br  0.25187174  0.30993164  0.93669824    -0.01600
Br492      Br  0.18687952  0.28696078  0.97438847    -0.01600
C493        C  0.28158033  0.37767258  0.36394509    -0.02700
C494        C  0.28113502  0.39146643  0.39613961     0.07000
C495        C  0.25327747  0.40694542  0.40762416    -0.02800
C496        C  0.22640244  0.40683812  0.38801523    -0.02800
C497        C  0.22687631  0.39222628  0.35618537     0.07100
C498        C  0.25527521  0.37953672  0.34393494    -0.03000
Br499      Br  0.25882404  0.36271490  0.29985152    -0.01500
Br500      Br  0.31667300  0.35131964  0.34723504    -0.01600
Br501      Br  0.18907881  0.42839644  0.40459355    -0.01600
Br502      Br  0.25139483  0.42854895  0.45032253    -0.01600
C503        C  0.74032872  0.27888441  0.01977299    -0.02700
C504        C  0.72330218  0.26560563  0.48987311     0.07000
C505        C  0.73124286  0.23225805  0.47473727    -0.02800
C506        C  0.75729820  0.21324882  0.48520811    -0.02800
C507        C  0.77940930  0.23356062  0.00879259     0.07100
C508        C  0.76716830  0.26073135  0.02909023    -0.03000
Br509      Br  0.78640270  0.27153944  0.07018820    -0.01500
Br510      Br  0.72247360  0.31474546  0.04859541    -0.01600
Br511      Br  0.76858430  0.16793762  0.46339915    -0.01600
Br512      Br  0.70720526  0.21344516  0.43888448    -0.01600
C513        C  0.75226947  0.40059399  0.40575539    -0.02700
C514        C  0.72252705  0.39650619  0.39164437     0.07000
C515        C  0.72062886  0.40002582  0.35743529    -0.02800
C516        C  0.74748703  0.40035857  0.33774822    -0.02800
C517        C  0.77735056  0.39966240  0.35185427     0.07100
C518        C  0.77900668  0.40365893  0.38604370    -0.03000
Br519      Br  0.81764808  0.41689481  0.40655834    -0.01500
Br520      Br  0.75771914  0.40182614  0.45218588    -0.01600
Br521      Br  0.74216087  0.40226674  0.29136433    -0.01600
Br522      Br  0.68123908  0.40761512  0.33675963    -0.01600
C523        C  0.63181386  0.27145978  0.32819124    -0.02700
C524        C  0.63133184  0.25710907  0.36000927     0.07000
C525        C  0.62992211  0.21773394  0.36402253    -0.02800
C526        C  0.63123313  0.19380982  0.33691376    -0.02800
C527        C  0.63104280  0.20846685  0.30546478     0.07100
C528        C  0.62993069  0.24750985  0.30137808    -0.03000
Br529      Br  0.62641317  0.26971006  0.25892625    -0.01500
Br530      Br  0.63722096  0.32392015  0.31999692    -0.01600
Br531      Br  0.63176830  0.14067411  0.34263887    -0.01600
Br532      Br  0.62395844  0.19509428  0.40599885    -0.01600
C533        C  0.62970357  0.24598217  0.05153800    -0.02700
C534        C  0.63343610  0.28484089  0.05582593     0.07000
C535        C  0.63711523  0.29896782  0.08726957    -0.02800
C536        C  0.63646680  0.27492216  0.11426198    -0.02800
C537        C  0.63421710  0.23563343  0.11001379     0.07100
C538        C  0.63101627  0.22159594  0.07812988    -0.03000
Br539      Br  0.62970186  0.16875467  0.06932705    -0.01500
Br540      Br  0.62371546  0.22466792  0.00891561    -0.01600
Br541      Br  0.63671031  0.29773339  0.15670843    -0.01600
Br542      Br  0.64156756  0.35180480  0.09353529    -0.01600
C543        C  0.52009610  0.34548157  0.46618954    -0.02700
C544        C  0.53496442  0.32730297  0.44046336     0.07000
C545        C  0.51753690  0.30907923  0.41649537    -0.02800
C546        C  0.48525072  0.30859817  0.41846899    -0.02800
C547        C  0.47034966  0.32668366  0.44420022     0.07100
C548        C  0.48775286  0.34540486  0.46792281    -0.03000
Br549      Br  0.46720946  0.37196002  0.50200490    -0.01500
Br550      Br  0.54410927  0.37011261  0.49917464    -0.01600
Br551      Br  0.46133215  0.28365941  0.38561647    -0.01600
Br552      Br  0.53794758  0.28656103  0.38009394    -0.01600
C553        C  0.11631486  0.52942520  0.26254192    -0.02700
C554        C  0.13356719  0.53724226  0.23429526     0.07000
C555        C  0.15211927  0.50942091  0.22100562    -0.02800
C556        C  0.15509476  0.47513576  0.23685033    -0.02800
C557        C  0.13639416  0.46613250  0.26415278     0.07100
C558        C  0.11639402  0.49350182  0.27634785    -0.03000
Br559      Br  0.08845169  0.48217485  0.31127484    -0.01500
Br560      Br  0.09335160  0.56838449  0.28311731    -0.01600
Br561      Br  0.18811640  0.44315454  0.22256931    -0.01600
Br562      Br  0.17603603  0.51941071  0.18242185    -0.01600
C563        C  0.89175757  0.53427787  0.26296492    -0.02700
C564        C  0.88878863  0.53674371  0.22891879     0.07000
C565        C  0.89121245  0.50394509  0.21062100    -0.02800
C566        C  0.89148684  0.46931624  0.22653133    -0.02800
C567        C  0.88568410  0.46693193  0.26028833     0.07100
C568        C  0.88860416  0.49977779  0.27878031    -0.03000
Br569      Br  0.88706412  0.49902110  0.32539307    -0.01500
Br570      Br  0.90069720  0.57846496  0.28790800    -0.01600
Br571      Br  0.90170450  0.42543529  0.20216737    -0.01600
Br572      Br  0.89232397  0.50549017  0.16402384    -0.01600
C573        C  0.99057904  0.70133748  0.17489765    -0.02700
C574        C  0.97323954  0.67158056  0.18775350     0.07000
C575        C  0.98862168  0.64100249  0.20126847    -0.02800
C576        C  0.02109164  0.64008450  0.20178836    -0.02800
C577        C  0.03856568  0.67022422  0.18960856     0.07100
C578        C  0.02303194  0.70099173  0.17627711    -0.03000
Br579      Br  0.04601667  0.74220802  0.15828702    -0.01500
Br580      Br  0.96983398  0.74149011  0.15330406    -0.01600
Br581      Br  0.04138560  0.59792345  0.22038786    -0.01600
Br582      Br  0.96511825  0.60093192  0.22038467    -0.01600
C583        C  0.89146516  0.99684312  0.46329079    -0.02700
C584        C  0.88581352  0.96453793  0.48193476     0.07000
C585        C  0.88338737  0.97054610  0.01654771    -0.02800
C586        C  0.88002019  0.00608251  0.03045335    -0.02800
C587        C  0.88189640  0.03817955  0.01102745     0.07100
C588        C  0.89105401  0.03238222  0.47798325    -0.03000
Br589      Br  0.90269215  0.07522873  0.45248134    -0.01500
Br590      Br  0.89989203  0.99379253  0.41748701    -0.01600
Br591      Br  0.87008605  0.00936749  0.07598214    -0.01600
Br592      Br  0.88834476  0.92899426  0.04575817    -0.01600
C593        C  0.85031701  0.74219419  0.34842392    -0.02700
C594        C  0.87834901  0.76129784  0.35415797     0.07000
C595        C  0.90527421  0.74893242  0.33876864    -0.02800
C596        C  0.90368696  0.72021842  0.31566064    -0.02800
C597        C  0.87510193  0.70361159  0.30749698     0.07100
C598        C  0.84858705  0.71370920  0.32506085    -0.03000
Br599      Br  0.80917757  0.69106563  0.31539201    -0.01500
Br600      Br  0.81398082  0.75553952  0.37243941    -0.01600
Br601      Br  0.94072140  0.70389411  0.29433250    -0.01600
Br602      Br  0.94457555  0.77018743  0.35034943    -0.01600
C603        C  0.89446936  0.75515675  0.04815891    -0.02700
C604        C  0.87727877  0.78866041  0.04934646     0.07000
C605        C  0.86008226  0.79656412  0.07738576    -0.02800
C606        C  0.85814489  0.77054530  0.10269297    -0.02800
C607        C  0.87526332  0.73719169  0.10149921     0.07100
C608        C  0.89403851  0.73028857  0.07444669    -0.03000
Br609      Br  0.92095900  0.68779599  0.07391259    -0.01500
Br610      Br  0.91802523  0.74080479  0.01043140    -0.01600
Br611      Br  0.83075035  0.78105151  0.13840618    -0.01600
Br612      Br  0.84047729  0.84417225  0.08250358    -0.01600
C613        C  0.12535040  0.99522876  0.46630004    -0.02700
C614        C  0.12798476  0.96357472  0.48638107     0.07000
C615        C  0.12079574  0.96955434  0.01915023    -0.02800
C616        C  0.11993904  0.00519098  0.03331023    -0.02800
C617        C  0.12285908  0.03699399  0.01374447     0.07100
C618        C  0.12152248  0.03062592  0.48022344    -0.03000
Br619      Br  0.11467122  0.07300418  0.45259448    -0.01500
Br620      Br  0.12883650  0.99198179  0.41981023    -0.01600
Br621      Br  0.11754658  0.00974320  0.07976155    -0.01600
Br622      Br  0.11201195  0.92696880  0.04627059    -0.01600
C623        C  0.16582449  0.73690630  0.36021718    -0.02700
C624        C  0.13890144  0.75665211  0.36751807     0.07000
C625        C  0.11108124  0.74606842  0.35267061    -0.02800
C626        C  0.11104307  0.72104081  0.32650749    -0.02800
C627        C  0.13895690  0.70469480  0.31602248     0.07100
C628        C  0.16572189  0.71007965  0.33535685    -0.03000
Br629      Br  0.20276869  0.68172637  0.32867606    -0.01500
Br630      Br  0.20314053  0.74714836  0.38410809    -0.01600
Br631      Br  0.07206501  0.70848771  0.30645772    -0.01600
Br632      Br  0.07271096  0.76315659  0.37042777    -0.01600
C633        C  0.15458748  0.80224339  0.08892729    -0.02700
C634        C  0.13730746  0.79442900  0.06077202     0.07000
C635        C  0.11954649  0.76096169  0.05955166    -0.02800
C636        C  0.11864604  0.73672288  0.08623617    -0.02800
C637        C  0.13758056  0.74339285  0.11339938     0.07100
C638        C  0.15600426  0.77613462  0.11424515    -0.03000
Br639      Br  0.18526418  0.78485021  0.14882109    -0.01500
Br640      Br  0.17569271  0.84937904  0.09388339    -0.01600
Br641      Br  0.09025564  0.69492749  0.08530779    -0.01600
Br642      Br  0.09841922  0.74464836  0.02063570    -0.01600
C643        C  0.02737510  0.84801073  0.40827594    -0.02700
C644        C  0.04189848  0.83797625  0.43754602     0.07000
C645        C  0.02409240  0.83192183  0.46550661    -0.02800
C646        C  0.99187035  0.83359144  0.46379628    -0.02800
C647        C  0.97721693  0.84075577  0.43403960     0.07100
C648        C  0.99507700  0.84939684  0.40654822    -0.03000
Br649      Br  0.97558349  0.86274161  0.36629568    -0.01500
Br650      Br  0.05142142  0.85914014  0.37008471    -0.01600
Br651      Br  0.96805630  0.82939477  0.50297614    -0.01600
Br652      Br  0.04378622  0.82416617  0.50678518    -0.01600
C653        C  0.38623240  0.49687757  0.46593118    -0.02700
C654        C  0.38629381  0.46542597  0.48612818     0.07000
C655        C  0.39199058  0.47037878  0.01779051    -0.02800
C656        C  0.39233372  0.50625557  0.03148562    -0.02800
C657        C  0.38799535  0.53761780  0.01159961     0.07100
C658        C  0.38717043  0.53266143  0.47960976    -0.03000
Br659      Br  0.38806534  0.57528609  0.45128645    -0.01500
Br660      Br  0.38142139  0.49147238  0.41972433    -0.01600
Br661      Br  0.39653920  0.51151273  0.07773394    -0.01600
Br662      Br  0.39690437  0.42768540  0.04548532    -0.01600
C663        C  0.25873334  0.77488490  0.47640464    -0.02700
C664        C  0.22980850  0.76573788  0.49013987     0.07000
C665        C  0.22844823  0.74258307  0.51772422    -0.02800
C666        C  0.25555099  0.73062935  0.03109514    -0.02800
C667        C  0.28409327  0.74183360  0.01816373     0.07100
C668        C  0.28540077  0.76532134  0.99119852    -0.03000
Br669      Br  0.32470627  0.78109091  0.97381395    -0.01500
Br670      Br  0.26162633  0.79853750  0.43455559    -0.01600
Br671      Br  0.25442708  0.69792425  0.06813800    -0.01600
Br672      Br  0.18993625  0.72521692  0.53547994    -0.01600
C673        C  0.26091014  0.61369154  0.16065528    -0.02700
C674        C  0.23123284  0.60895989  0.14657480     0.07000
C675        C  0.22994046  0.59876048  0.11343359    -0.02800
C676        C  0.25708873  0.59672520  0.09440073    -0.02800
C677        C  0.28625238  0.60719312  0.10724201     0.07100
C678        C  0.28792509  0.61374956  0.14119588    -0.03000
Br679      Br  0.32686403  0.62410556  0.16233744    -0.01500
Br680      Br  0.26555796  0.62125598  0.20679928    -0.01600
Br681      Br  0.25401472  0.57670150  0.05110799    -0.01600
Br682      Br  0.19100012  0.58570662  0.09358323    -0.01600
C683        C  0.61323803  0.46744848  0.01733964    -0.02700
C684        C  0.62004566  0.46156346  0.48378312     0.07000
C685        C  0.61909939  0.49336993  0.46374584    -0.02800
C686        C  0.61900354  0.52909306  0.47775042    -0.02800
C687        C  0.62017713  0.53432724  0.01118735     0.07100
C688        C  0.61527765  0.50320995  0.03116119    -0.03000
Br689      Br  0.61413156  0.50857391  0.07759507    -0.01500
Br690      Br  0.60231412  0.42616821  0.04494345    -0.01600
Br691      Br  0.61665171  0.57210051  0.44992723    -0.01600
Br692      Br  0.61880907  0.48940952  0.41713390    -0.01600
C693        C  0.75796762  0.77274755  0.46215814    -0.02700
C694        C  0.78760059  0.76152163  0.47230137     0.07000
C695        C  0.79020121  0.73149567  0.49403544    -0.02800
C696        C  0.76377425  0.71446535  0.00666006    -0.02800
C697        C  0.73460141  0.73092907  0.00169140     0.07100
C698        C  0.73190355  0.75992862  0.97917896    -0.03000
Br699      Br  0.69197839  0.77898323  0.96743959    -0.01500
Br700      Br  0.75297920  0.80374199  0.42435158    -0.01600
Br701      Br  0.76798228  0.66753553  0.02871387    -0.01600
Br702      Br  0.82966433  0.71073635  0.50577412    -0.01600
C703        C  0.74415082  0.64521954  0.10551685    -0.02700
C704        C  0.72653864  0.61263687  0.10137026     0.07000
C705        C  0.73535857  0.58033044  0.11810944    -0.02800
C706        C  0.76258151  0.58043459  0.13726328    -0.02800
C707        C  0.78210485  0.61205137  0.13796404     0.07100
C708        C  0.77294552  0.64409877  0.12099507    -0.03000
Br709      Br  0.79891406  0.68773971  0.12009926    -0.01500
Br710      Br  0.72644455  0.69259802  0.09467433    -0.01600
Br711      Br  0.77349393  0.53733756  0.16193454    -0.01600
Br712      Br  0.70946390  0.53685376  0.11574336    -0.01600
C713        C  0.52379289  0.64848837  0.03241352    -0.02700
C714        C  0.54048513  0.67866932  0.04562134     0.07000
C715        C  0.52442253  0.70876175  0.05909726    -0.02800
C716        C  0.49197531  0.70796790  0.06051201    -0.02800
C717        C  0.47535475  0.67692403  0.04876356     0.07100
C718        C  0.49137341  0.64739728  0.03431588    -0.03000
Br719      Br  0.46803028  0.60516701  0.51774665    -0.01500
Br720      Br  0.54464591  0.60802089  0.51203313    -0.01600
Br721      Br  0.47035092  0.74848861  0.08051167    -0.01600
Br722      Br  0.54688624  0.75012849  0.07746613    -0.01600
C723        C  0.61258814  0.98340468  0.26979333    -0.02700
C724        C  0.63638580  0.95905845  0.26095281     0.07000
C725        C  0.65664098  0.96940499  0.23540872    -0.02800
C726        C  0.65273392  0.00301842  0.21883253    -0.02800
C727        C  0.63043420  0.02839521  0.22917085     0.07100
C728        C  0.61016183  0.01834888  0.25448443    -0.03000
Br729      Br  0.57856047  0.05238959  0.26747339    -0.01500
Br730      Br  0.58264570  0.96853450  0.30176411    -0.01600
Br731      Br  0.67933492  0.01493140  0.18276166    -0.01600
Br732      Br  0.69192053  0.93940132  0.22412550    -0.01600
C733        C  0.75246352  0.72294902  0.21978150    -0.02700
C734        C  0.78177510  0.73693890  0.22861124     0.07000
C735        C  0.78436704  0.76295113  0.25377607    -0.02800
C736        C  0.75804685  0.77352048  0.27086757    -0.02800
C737        C  0.72842549  0.76216529  0.26015814     0.07100
C738        C  0.72581752  0.73624721  0.23467854    -0.03000
Br739      Br  0.68640644  0.71797181  0.21939523    -0.01500
Br740      Br  0.74842771  0.68412492  0.18805420    -0.01600
Br741      Br  0.76322223  0.80084561  0.31080393    -0.01600
Br742      Br  0.82419665  0.78226235  0.26666890    -0.01600
C743        C  0.72956428  0.89806000  0.38543625    -0.02700
C744        C  0.73002298  0.89440222  0.35124089     0.07000
C745        C  0.75882636  0.89876116  0.33533755    -0.02800
C746        C  0.78654150  0.90043267  0.35339165     0.02000
C747        C  0.78627017  0.89766975  0.38762482     0.07100
C748        C  0.75726725  0.89997465  0.40347098    -0.03000
Br749      Br  0.75422404  0.90596655  0.44993792    -0.01500
Br750      Br  0.69091955  0.90216708  0.40856008    -0.01600
Br751      Br  0.82478169  0.90879350  0.33032984    -0.01600
Br752      Br  0.76146168  0.90211180  0.28872221    -0.01600
C753        C  0.60903597  0.74056200  0.39726708    -0.02700
C754        C  0.63649473  0.75261496  0.38232506     0.07000
C755        C  0.66387625  0.73273696  0.38776857    -0.02800
C756        C  0.66442418  0.70351245  0.41034476    -0.02800
C757        C  0.63772326  0.69443590  0.42813102     0.07100
C758        C  0.60967659  0.71160025  0.42009401    -0.03000
Br759      Br  0.57238783  0.69609237  0.44180057    -0.01500
Br760      Br  0.57043688  0.76292516  0.38585793    -0.01600
Br761      Br  0.70255342  0.67830787  0.41894546    -0.01600
Br762      Br  0.70116445  0.74672785  0.36527509    -0.01600
C763        C  0.65413627  0.79607290  0.16089810    -0.02700
C764        C  0.63631090  0.78690295  0.18837476     0.07000
C765        C  0.61849227  0.75348812  0.18793170    -0.02800
C766        C  0.61920425  0.72970488  0.16088415    -0.02800
C767        C  0.63866366  0.73772238  0.13441315     0.07100
C768        C  0.65617231  0.77119167  0.13468922    -0.03000
Br769      Br  0.68458449  0.78306725  0.10008288    -0.01500
Br770      Br  0.67493449  0.84369863  0.15797099    -0.01600
Br771      Br  0.59214388  0.68666444  0.16014529    -0.01600
Br772      Br  0.59417866  0.73731209  0.22472031    -0.01600
C773        C  0.34591485  0.02164098  0.25373868    -0.02700
C774        C  0.37133127  0.03591156  0.23619605     0.07000
C775        C  0.39848718  0.01477997  0.23444686    -0.02800
C776        C  0.39956998  0.97910510  0.24892285    -0.02800
C777        C  0.37439248  0.96555250  0.26722763     0.07100
C778        C  0.34783617  0.98747197  0.26988348    -0.03000
Br779      Br  0.31320919  0.97068404  0.29512100    -0.01500
Br780      Br  0.30730124  0.04807351  0.25470653    -0.01600
Br781      Br  0.43530728  0.94851117  0.24359666    -0.01600
Br782      Br  0.43456870  0.03553137  0.21405848    -0.01600
C783        C  0.40478366  0.74567637  0.40212314    -0.02700
C784        C  0.37792991  0.75696097  0.38599780     0.07000
C785        C  0.34982070  0.73849896  0.39262223    -0.02800
C786        C  0.34803243  0.71106152  0.41682090    -0.02800
C787        C  0.37436964  0.70223065  0.43510204     0.07100
C788        C  0.40299146  0.71865210  0.42669964    -0.03000
Br789      Br  0.43972314  0.70483118  0.44990142    -0.01500
Br790      Br  0.44414590  0.76631588  0.38985464    -0.01600
Br791      Br  0.30870043  0.68840543  0.42678051    -0.01600
Br792      Br  0.31317140  0.75227273  0.36959718    -0.01600
C793        C  0.39634638  0.75431436  0.19340217    -0.02700
C794        C  0.37828208  0.78728780  0.19244671     0.07000
C795        C  0.36041312  0.79433473  0.16463293    -0.02800
C796        C  0.35888641  0.76809499  0.13947883    -0.02800
C797        C  0.37744693  0.73603603  0.14016307     0.07100
C798        C  0.39665465  0.72978300  0.16688072    -0.03000
Br799      Br  0.42452644  0.68819384  0.16671099    -0.01500
Br800      Br  0.41930874  0.73929156  0.23131609    -0.01600
Br801      Br  0.32961833  0.77555492  0.10492567    -0.01600
Br802      Br  0.33874440  0.84058707  0.15970272    -0.01600
C803        C  0.49181409  0.84881426  0.33679113    -0.02700
C804        C  0.47518934  0.83852036  0.30884561     0.07000
C805        C  0.49108731  0.82994779  0.28016526    -0.02800
C806        C  0.52335672  0.82864374  0.28006921    -0.02800
C807        C  0.53997406  0.83615573  0.30862968     0.07100
C808        C  0.52416960  0.84773894  0.33668013    -0.03000
Br809      Br  0.54646630  0.86139723  0.37540759    -0.01500
Br810      Br  0.47045048  0.86353628  0.37561974    -0.01600
Br811      Br  0.54467368  0.81946968  0.23999473    -0.01600
Br812      Br  0.46890892  0.82293172  0.24021469    -0.01600
C813        C  0.22949221  0.76114728  0.26481034    -0.02700
C814        C  0.22942656  0.74103259  0.23569443     0.07000
C815        C  0.25741294  0.73314734  0.22013062    -0.02800
C816        C  0.28549585  0.74127346  0.23535214    -0.02800
C817        C  0.28578909  0.76132455  0.26465850     0.07100
C818        C  0.25749304  0.77027384  0.27971742    -0.03000
Br819      Br  0.25657616  0.79422991  0.32157332    -0.01500
Br820      Br  0.19151694  0.77758789  0.28412371    -0.01600
Br821      Br  0.32282749  0.72365791  0.21582460    -0.01600
Br822      Br  0.25689095  0.71405142  0.17645511    -0.01600
C823        C  0.25684050  0.89634414  0.34331470    -0.02700
C824        C  0.28640461  0.89197129  0.35749682     0.07000
C825        C  0.28871396  0.89480588  0.39181105    -0.02800
C826        C  0.26199136  0.89608322  0.41136075    -0.02800
C827        C  0.23236543  0.89595355  0.39703277     0.07100
C828        C  0.23043057  0.89982458  0.36299477    -0.03000
Br829      Br  0.19162069  0.91232163  0.34284523    -0.01500
Br830      Br  0.25073589  0.89567001  0.29693333    -0.01600
Br831      Br  0.26699035  0.89735003  0.45789707    -0.01600
Br832      Br  0.32835518  0.89796371  0.41327674    -0.01600
Fe833      Fe  0.38051129  0.86745315  0.83325430     1.65800
Fe834      Fe  0.33469157  0.85987211  0.76919133     1.73200
Fe835      Fe  0.38314355  0.79229677  0.78604301     1.54400
O836        O  0.42759445  0.80721156  0.80031913    -0.82500
O837        O  0.30711716  0.81757508  0.78141061    -0.80800
O838        O  0.42528422  0.86570441  0.81764193    -0.85000
O839        O  0.38601239  0.81888690  0.86188986    -0.79900
O840        O  0.39436152  0.81296278  0.74198788    -0.81600
O841        O  0.31402648  0.88990434  0.80691842    -0.84400
C842        C  0.37904742  0.78455139  0.85755103     0.96400
C843        C  0.44042973  0.83770146  0.80853891     1.03800
O844        O  0.36625960  0.83965949  0.79667670    -1.13400
O845        O  0.36253242  0.90337338  0.75714114    -0.75800
O846        O  0.37587594  0.91882605  0.80765535    -0.79300
O847        O  0.37338799  0.77098695  0.83002677    -0.80000
C848        C  0.37163198  0.92709573  0.77769965     0.95300
O849        O  0.33641934  0.86939023  0.85089287    -0.77900
O850        O  0.34837442  0.82964227  0.72778172    -0.83100
C851        C  0.31210622  0.78431515  0.77388526     0.97900
C852        C  0.37331379  0.81288675  0.72142096     1.03800
O853        O  0.33946318  0.77176242  0.77082926    -0.78800
C854        C  0.31346904  0.88383957  0.83725666     1.02100
Fe855      Fe  0.63415562  0.86513734  0.83232462     1.65800
Fe856      Fe  0.67741276  0.85758243  0.76708662     1.73200
Fe857      Fe  0.62925983  0.78966902  0.78488459     1.54400
O858        O  0.63820790  0.76874196  0.82892472    -0.82500
O859        O  0.66456911  0.82589154  0.72629653    -0.80800
O860        O  0.62929869  0.81683579  0.86166995    -0.85000
O861        O  0.58893748  0.86252322  0.81856520    -0.79900
O862        O  0.67312551  0.77039519  0.77090698    -0.81600
O863        O  0.64662294  0.89665124  0.75529783    -0.84400
C864        C  0.57303947  0.83528742  0.80837224     0.96400
C865        C  0.63429957  0.78225188  0.85669518     1.03800
O866        O  0.64693347  0.83680333  0.79558301    -1.13400
O867        O  0.69818552  0.89106631  0.80333817    -0.75800
O868        O  0.67894355  0.86838759  0.84818073    -0.79300
O869        O  0.58497610  0.80508927  0.79862861    -0.80000
C870        C  0.70072233  0.88489624  0.83340242     0.95300
O871        O  0.63798138  0.91606415  0.80545495    -0.77900
O872        O  0.70603047  0.81718039  0.77935580    -0.83100
C873        C  0.63959893  0.80923278  0.71918478     0.97900
C874        C  0.70063252  0.78354363  0.77276934     1.03800
O875        O  0.61845282  0.80811959  0.73972914    -0.78800
C876        C  0.63996721  0.92219145  0.77481580     1.02100
Fe877      Fe  0.62980967  0.63330490  0.57686439     1.65800
Fe878      Fe  0.67708349  0.63410167  0.51067875     1.73200
Fe879      Fe  0.63749299  0.71221674  0.53102701     1.54400
O880        O  0.59033325  0.70123816  0.53520507    -0.82500
O881        O  0.70551456  0.67772495  0.50584642    -0.80800
O882        O  0.58580098  0.64933908  0.56456369    -0.85000
O883        O  0.63526833  0.67858657  0.60813438    -0.79900
O884        O  0.63523953  0.70562691  0.98280897    -0.81600
O885        O  0.70357119  0.61824347  0.55045578    -0.84400
C886        C  0.63801815  0.71361075  0.60521674     0.96400
C887        C  0.57414240  0.67601749  0.54881740     1.03800
O888        O  0.64794778  0.65988901  0.53944025    -1.13400
O889        O  0.65304940  0.58575296  0.50943270    -0.75800
O890        O  0.62095565  0.58403743  0.55087425    -0.79300
O891        O  0.63947605  0.72900233  0.57795097    -0.80000
C892        C  0.63186782  0.56999741  0.52511115     0.95300
O893        O  0.67251177  0.61592221  0.59350442    -0.77900
O894        O  0.65393276  0.65093315  0.96768989    -0.83100
C895        C  0.70621877  0.71168390  0.51229440     0.97900
C896        C  0.64169585  0.68214397  0.96137655     1.03800
O897        O  0.68361324  0.72859415  0.52507637    -0.78800
C898        C  0.69905606  0.61413005  0.58072063     1.02100
Fe899      Fe  0.38305466  0.63313221  0.58200737     1.65800
Fe900      Fe  0.33423478  0.64003293  0.51754161     1.73200
Fe901      Fe  0.37991266  0.71386959  0.53873425     1.54400
O902        O  0.38120717  0.72775535  0.58606234    -0.82500
O903        O  0.35596004  0.65838645  0.97292579    -0.80800
O904        O  0.37747299  0.67628650  0.61515498    -0.85000
O905        O  0.42817916  0.64947897  0.57110171    -0.79900
O906        O  0.33558488  0.73365824  0.53716864    -0.81600
O907        O  0.35619046  0.59037341  0.51346404    -0.84400
C908        C  0.44085436  0.67456700  0.55379171     0.96400
C909        C  0.37818109  0.71144134  0.61272713     1.03800
O910        O  0.36594883  0.66223425  0.54589785    -1.13400
O911        O  0.30770754  0.62275819  0.55702061    -0.75800
O912        O  0.33984953  0.61396307  0.59764999    -0.79300
O913        O  0.42567580  0.69933003  0.53915704    -0.80000
C914        C  0.31256521  0.61425282  0.58640648     0.95300
O915        O  0.39054134  0.58654910  0.55303666    -0.77900
O916        O  0.30840725  0.68593544  0.51754356    -0.83100
C917        C  0.37029548  0.68861916  0.96680715     0.97900
C918        C  0.31099897  0.71928266  0.52614499     1.03800
O919        O  0.37982880  0.71020960  0.98859926    -0.78800
C920        C  0.37781046  0.57370203  0.52762949     1.02100
Fe921      Fe  0.13590976  0.86841777  0.91735248     1.65800
Fe922      Fe  0.17992701  0.86480461  0.98336688     1.73200
Fe923      Fe  0.13148052  0.79517465  0.96668908     1.54400
O924        O  0.08722130  0.80859869  0.95132179    -0.82500
O925        O  0.20800639  0.82262403  0.97333165    -0.80800
O926        O  0.09065191  0.86491158  0.92948592    -0.85000
O927        O  0.13289305  0.81909294  0.88946218    -0.79900
O928        O  0.12037149  0.81478625  0.50974583    -0.81600
O929        O  0.20145881  0.89571333  0.94637318    -0.84400
C930        C  0.13749216  0.78460904  0.89511477     0.96400
C931        C  0.07501746  0.83771610  0.93979649     1.03800
O932        O  0.14903380  0.84246248  0.95520725    -1.13400
O933        O  0.15143316  0.90738233  0.99340110    -0.75800
O934        O  0.13621278  0.91962536  0.94308696    -0.79300
O935        O  0.14128877  0.77182546  0.92326311    -0.80000
C936        C  0.13845637  0.92848361  0.97315209     0.95300
O937        O  0.18070698  0.87285741  0.90215161    -0.77900
O938        O  0.16599386  0.83325683  0.52463193    -0.83100
C939        C  0.20236562  0.78920633  0.98065761     0.97900
C940        C  0.14099873  0.81600897  0.53085475     1.03800
O941        O  0.17484716  0.77630035  0.98278499    -0.78800
C942        C  0.20303862  0.88858553  0.91629214     1.02100
Fe943      Fe  0.88222438  0.87132936  0.90872009     1.65800
Fe944      Fe  0.83678020  0.86183553  0.97332932     1.73200
Fe945      Fe  0.88568385  0.79481168  0.95470280     1.54400
O946        O  0.87705150  0.77450445  0.91011705    -0.82500
O947        O  0.85043466  0.82927600  0.51263809    -0.80800
O948        O  0.88504262  0.82369625  0.87816735    -0.85000
O949        O  0.92774997  0.86738009  0.92183155    -0.79900
O950        O  0.84211899  0.77402340  0.96791955    -0.81600
O951        O  0.86462637  0.90456914  0.98621788    -0.84400
C952        C  0.94284140  0.84015498  0.93264259     0.96400
C953        C  0.88013833  0.78883297  0.88249878     1.03800
O954        O  0.86847578  0.84249303  0.94503520    -1.13400
O955        O  0.81620629  0.89478631  0.93767937    -0.75800
O956        O  0.83743451  0.87627765  0.89252265    -0.79300
O957        O  0.93011175  0.81021337  0.94212135    -0.80000
C958        C  0.81460528  0.88987683  0.90749825     0.95300
O959        O  0.88098486  0.92110263  0.93728157    -0.77900
O960        O  0.80896029  0.81974252  0.96031798    -0.83100
C961        C  0.87513888  0.81224231  0.51926178     0.97900
C962        C  0.81460141  0.78599019  0.96569775     1.03800
O963        O  0.89629848  0.81163385  0.49882176    -0.78800
C964        C  0.87689824  0.92824516  0.96763643     1.02100
Fe965      Fe  0.88017574  0.63424531  0.66045603     1.65800
Fe966      Fe  0.83461911  0.63896925  0.72785220     1.73200
Fe967      Fe  0.87707836  0.71465833  0.70445073     1.54400
O968        O  0.92340810  0.70086503  0.70102269    -0.82500
O969        O  0.80691397  0.68290979  0.72847424    -0.80800
O970        O  0.92512057  0.64873705  0.67157262    -0.85000
O971        O  0.87616124  0.67850070  0.62792102    -0.79900
O972        O  0.88004523  0.71034820  0.75281648    -0.81600
O973        O  0.80729788  0.61857468  0.68985907    -0.84400
C974        C  0.87552084  0.71364521  0.63052427     0.96400
C975        C  0.93816778  0.67473328  0.68742892     1.03800
O976        O  0.86411017  0.66262269  0.69768326    -1.13400
O977        O  0.85915920  0.59178560  0.73193143    -0.75800
O978        O  0.88732578  0.58553281  0.68771801    -0.79300
O979        O  0.87610931  0.72950283  0.65749296    -0.80000
C980        C  0.87855811  0.57421016  0.71545293     0.95300
O981        O  0.83629045  0.61882186  0.64535125    -0.77900
O982        O  0.85626497  0.65919052  0.76988780    -0.83100
C983        C  0.80792523  0.71662106  0.72083149     0.97900
C984        C  0.87080315  0.68948135  0.77518086     1.03800
O985        O  0.83171561  0.73257573  0.70904713    -0.78800
C986        C  0.81038363  0.61548860  0.65934071     1.02100
Fe987      Fe  0.13225134  0.63543326  0.66858960     1.65800
Fe988      Fe  0.17718796  0.64138431  0.73434008     1.73200
Fe989      Fe  0.13062269  0.71281251  0.71553594     1.54400
O990        O  0.13774454  0.73152381  0.66972954    -0.82500
O991        O  0.16195467  0.66812787  0.77613074    -0.80800
O992        O  0.13172484  0.68197050  0.63850610    -0.85000
O993        O  0.08601122  0.64264312  0.68039500    -0.79900
O994        O  0.17438605  0.73263453  0.72757064    -0.81600
O995        O  0.14911664  0.59749344  0.74463065    -0.84400
C996        C  0.07174462  0.67033476  0.69213362     0.96400
C997        C  0.13561604  0.71678973  0.64214478     1.03800
O998        O  0.14615627  0.66326627  0.70622752    -1.13400
O999        O  0.20001468  0.61199074  0.69758935    -0.75800
O1000       O  0.17725395  0.62851360  0.65251763    -0.79300
O1001       O  0.08563369  0.69814010  0.70448277    -0.80000
C1002       C  0.20079471  0.61645246  0.66712131     0.95300
O1003       O  0.13198271  0.58481308  0.69485022    -0.77900
O1004       O  0.20603895  0.68421354  0.72527812    -0.83100
C1005       C  0.13988160  0.68917557  0.78380017     0.97900
C1006       C  0.20117310  0.71854776  0.72830606     1.03800
O1007       O  0.12125422  0.70051241  0.76268351    -0.78800
C1008       C  0.13709121  0.57550841  0.72431122     1.02100
Fe1009     Fe  0.62786697  0.36530239  0.91570604     1.65800
Fe1010     Fe  0.67219278  0.36338903  0.98157701     1.73200
Fe1011     Fe  0.63014635  0.28881511  0.96033899     1.54400
O1012       O  0.58523169  0.29746238  0.94409459    -0.82500
O1013       O  0.70396207  0.32458887  0.97300869    -0.80800
O1014       O  0.58330251  0.35728551  0.93064396    -0.85000
O1015       O  0.62547025  0.31694012  0.88662585    -0.79900
O1016       O  0.61329138  0.30447330  0.50407053    -0.81600
O1017       O  0.69345089  0.39518279  0.94420473    -0.84400
C1018       C  0.63527637  0.28366524  0.88888671     0.96400
C1019       C  0.57028297  0.32687819  0.93811109     1.03800
O1020       O  0.64342571  0.33903286  0.95239397    -1.13400
O1021       O  0.64105372  0.40352560  0.99155796    -0.75800
O1022       O  0.62696440  0.41631917  0.94131158    -0.79300
O1023       O  0.64433195  0.27142799  0.91576310    -0.80000
C1024       C  0.62853108  0.42495636  0.97134246     0.95300
O1025       O  0.67247940  0.37347285  0.89933025    -0.77900
O1026       O  0.65675336  0.32982324  0.52082447    -0.83100
C1027       C  0.69981566  0.29074595  0.97930764     0.97900
C1028       C  0.63331157  0.30885959  0.52574059     1.03800
O1029       O  0.67360059  0.27463831  0.97815878    -0.78800
C1030       C  0.69504392  0.38879155  0.91376104     1.02100
Fe1031     Fe  0.37958397  0.36806329  0.91774962     1.65800
Fe1032     Fe  0.33379685  0.36200726  0.98468517     1.73200
Fe1033     Fe  0.37752706  0.28803665  0.96203578     1.54400
O1034       O  0.37840642  0.27355724  0.91440619    -0.82500
O1035       O  0.35551046  0.34483532  0.52786471    -0.80800
O1036       O  0.37183258  0.32440348  0.88551332    -0.85000
O1037       O  0.42445307  0.35130920  0.92563212    -0.79900
O1038       O  0.33259121  0.26826161  0.96432040    -0.81600
O1039       O  0.35647975  0.41191502  0.98712613    -0.84400
C1040       C  0.43782580  0.32726201  0.94301106     0.96400
C1041       C  0.37365847  0.28935573  0.88775464     1.03800
O1042       O  0.36397127  0.33953137  0.95510226    -1.13400
O1043       O  0.30565220  0.37818705  0.94634527    -0.75800
O1044       O  0.33636143  0.38723149  0.90434333    -0.79300
O1045       O  0.42349045  0.30359308  0.96030476    -0.80000
C1046       C  0.30958776  0.38593706  0.91664486     0.95300
O1047       O  0.38916721  0.41516957  0.94581816    -0.77900
O1048       O  0.30776860  0.31596944  0.98622803    -0.83100
C1049       C  0.36817267  0.31378356  0.53357543     0.97900
C1050       C  0.30887052  0.28288265  0.97675154     1.03800
O1051       O  0.37650205  0.29200130  0.51149146    -0.78800
C1052       C  0.37752911  0.42849896  0.97154577     1.02100
Fe1053     Fe  0.37508760  0.13278254  0.66550065     1.65800
Fe1054     Fe  0.33013645  0.13936616  0.73039836     1.73200
Fe1055     Fe  0.37726742  0.20889176  0.71267851     1.54400
O1056       O  0.42180617  0.19629713  0.69660514    -0.82500
O1057       O  0.30178236  0.18089016  0.71879821    -0.80800
O1058       O  0.42038993  0.13745377  0.68026729    -0.85000
O1059       O  0.37920157  0.18151242  0.63688187    -0.79900
O1060       O  0.38992212  0.19010574  0.75705810    -0.81600
O1061       O  0.30848047  0.10812237  0.69341499    -0.84400
C1062       C  0.37191960  0.21557425  0.64125300     0.96400
C1063       C  0.43533027  0.16650034  0.68828827     1.03800
O1064       O  0.36091656  0.16054718  0.70229612    -1.13400
O1065       O  0.35943136  0.09792030  0.74168438    -0.75800
O1066       O  0.37214406  0.08146096  0.69140101    -0.79300
O1067       O  0.36570903  0.22892644  0.66871400    -0.80000
C1068       C  0.36830205  0.07386925  0.72153385     0.95300
O1069       O  0.33038047  0.12748572  0.64822675    -0.77900
O1070       O  0.34446333  0.16988947  0.77164942    -0.83100
C1071       C  0.30667574  0.21339849  0.72871494     0.97900
C1072       C  0.36883065  0.18851410  0.77775205     1.03800
O1073       O  0.33388923  0.22731693  0.73028553    -0.78800
C1074       C  0.30711450  0.11450205  0.66312206     1.02100
Fe1075     Fe  0.62825527  0.12844784  0.66442498     1.65800
Fe1076     Fe  0.67376170  0.13412842  0.72961155     1.73200
Fe1077     Fe  0.62954752  0.20523537  0.70858260     1.54400
O1078       O  0.64358049  0.22183341  0.66380888    -0.82500
O1079       O  0.65822191  0.16435318  0.77054528    -0.80800
O1080       O  0.62271569  0.17629511  0.63575016    -0.85000
O1081       O  0.58335154  0.13326401  0.68042802    -0.79900
O1082       O  0.67255008  0.22286436  0.72632363    -0.81600
O1083       O  0.64394391  0.09162015  0.73972617    -0.84400
C1084       C  0.56974693  0.16358747  0.68653388     0.96400
C1085       C  0.63268998  0.20955018  0.63753565     1.03800
O1086       O  0.64373627  0.15590087  0.70093770    -1.13400
O1087       O  0.69523413  0.10419071  0.69174549    -0.75800
O1088       O  0.67289116  0.12421355  0.64713433    -0.79300
O1089       O  0.58470929  0.19353523  0.69221485    -0.80000
C1090       C  0.69614094  0.11054259  0.66128979     0.95300
O1091       O  0.63133743  0.07721704  0.68899294    -0.77900
O1092       O  0.70452107  0.17538004  0.72086926    -0.83100
C1093       C  0.63515601  0.18539175  0.77545353     0.97900
C1094       C  0.69937953  0.20891750  0.72744687     1.03800
O1095       O  0.61533448  0.19010533  0.75366253    -0.78800
C1096       C  0.63467646  0.06848703  0.71877443     1.02100
Fe1097     Fe  0.87594953  0.37448001  0.83086782     1.65800
Fe1098     Fe  0.82941268  0.36987235  0.76623657     1.73200
Fe1099     Fe  0.87293891  0.29760576  0.78648328     1.54400
O1100       O  0.91884011  0.30852536  0.80114838    -0.82500
O1101       O  0.79804752  0.32997588  0.77674532    -0.80800
O1102       O  0.92056436  0.36803277  0.81553858    -0.85000
O1103       O  0.87940472  0.32665068  0.86039885    -0.79900
O1104       O  0.88620499  0.31136604  0.74087671    -0.81600
O1105       O  0.80902380  0.40125484  0.80417152    -0.84400
C1106       C  0.86920323  0.29338354  0.85799333     0.96400
C1107       C  0.93396410  0.33808570  0.80821712     1.03800
O1108       O  0.85976121  0.34742312  0.79439004    -1.13400
O1109       O  0.86004185  0.41132932  0.75496081    -0.75800
O1110       O  0.87613741  0.42502374  0.80465659    -0.79300
O1111       O  0.85958123  0.28122008  0.83131015    -0.80000
C1112       C  0.87403645  0.43281778  0.77448565     0.95300
O1113       O  0.83156089  0.38085181  0.84835662    -0.77900
O1114       O  0.84335877  0.33799198  0.72487958    -0.83100
C1115       C  0.80215402  0.29614862  0.77066395     0.97900
C1116       C  0.86592111  0.31611313  0.71958555     1.03800
O1117       O  0.82870004  0.28135856  0.77078383    -0.78800
C1118       C  0.80812733  0.39437001  0.83457157     1.02100
Fe1119     Fe  0.12934072  0.36779024  0.83365944     1.65800
Fe1120     Fe  0.17423041  0.36029994  0.76921494     1.73200
Fe1121     Fe  0.12590043  0.29195591  0.78617033     1.54400
O1122       O  0.13686423  0.27133599  0.83019366    -0.82500
O1123       O  0.15970922  0.33050031  0.72775632    -0.80800
O1124       O  0.12399137  0.31895023  0.86212238    -0.85000
O1125       O  0.08398346  0.36464349  0.81806876    -0.79900
O1126       O  0.16903843  0.27256200  0.76865341    -0.81600
O1127       O  0.14497057  0.40164208  0.75802361    -0.84400
C1128       C  0.06851012  0.33616519  0.80940565     0.96400
C1129       C  0.13110828  0.28480039  0.85774575     1.03800
O1130       O  0.14319943  0.33961504  0.79704686    -1.13400
O1131       O  0.19622552  0.39100532  0.80656639    -0.75800
O1132       O  0.17394953  0.37132482  0.85144204    -0.79300
O1133       O  0.08145874  0.30581628  0.80161227    -0.80000
C1134       C  0.19741114  0.38426624  0.83687436     0.95300
O1135       O  0.13424718  0.41945580  0.80805494    -0.77900
O1136       O  0.20189706  0.31812052  0.78059131    -0.83100
C1137       C  0.13497398  0.31283343  0.72131435     0.97900
C1138       C  0.19646343  0.28590208  0.77024161     1.03800
O1139       O  0.11383003  0.31153303  0.74191204    -0.78800
C1140       C  0.13789005  0.42675928  0.77780919     1.02100
Fe1141     Fe  0.12588717  0.13395049  0.58043431     1.65800
Fe1142     Fe  0.17246459  0.14118205  0.51418160     1.73200
Fe1143     Fe  0.12759445  0.21448173  0.53624398     1.54400
O1144       O  0.08173770  0.19887208  0.53928472    -0.82500
O1145       O  0.19767044  0.18768898  0.51185803    -0.80800
O1146       O  0.08072413  0.14854066  0.57096253    -0.85000
O1147       O  0.13145173  0.17823262  0.61277237    -0.79900
O1148       O  0.12869328  0.20985786  0.98822924    -0.81600
O1149       O  0.20057610  0.12573001  0.55288684    -0.84400
C1150       C  0.13074072  0.21340230  0.61036930     0.96400
C1151       C  0.06734564  0.17365621  0.55475022     1.03800
O1152       O  0.14169693  0.16308863  0.54343377    -1.13400
O1153       O  0.15137924  0.09068370  0.51199147    -0.75800
O1154       O  0.11839949  0.08573734  0.55275914    -0.79300
O1155       O  0.12773793  0.22931639  0.58353326    -0.80000
C1156       C  0.13090714  0.07292254  0.52727807     0.95300
O1157       O  0.16942477  0.11690747  0.59475079    -0.77900
O1158       O  0.15186880  0.15795755  0.97285606    -0.83100
C1159       C  0.19604186  0.22107555  0.52022395     0.97900
C1160       C  0.13787287  0.18808232  0.96653969     1.03800
O1161       O  0.17213905  0.23550987  0.53238463    -0.78800
C1162       C  0.19627960  0.11795615  0.58257728     1.02100
Fe1163     Fe  0.87648875  0.13363557  0.58068400     1.65800
Fe1164     Fe  0.83019448  0.13609121  0.51625154     1.73200
Fe1165     Fe  0.87325939  0.21013614  0.53556380     1.54400
O1166       O  0.86075154  0.22773293  0.58058318    -0.82500
O1167       O  0.84567837  0.17046606  0.97428077    -0.80800
O1168       O  0.87891720  0.18197239  0.61029790    -0.85000
O1169       O  0.92106506  0.14219749  0.56589168    -0.79900
O1170       O  0.82895309  0.22435676  0.51985042    -0.81600
O1171       O  0.86050356  0.09577167  0.50412939    -0.84400
C1172       C  0.93407651  0.17219051  0.55708613     0.96400
C1173       C  0.86945786  0.21542655  0.60759018     1.03800
O1174       O  0.86046332  0.15987076  0.54413483    -1.13400
O1175       O  0.81102108  0.10285465  0.55340453    -0.75800
O1176       O  0.83208172  0.12522716  0.59779213    -0.79300
O1177       O  0.91888097  0.20107033  0.54965556    -0.80000
C1178       C  0.80939854  0.10991576  0.58359575     0.95300
O1179       O  0.87708618  0.08288688  0.55383583    -0.77900
O1180       O  0.79927945  0.17468555  0.52850514    -0.83100
C1181       C  0.86854217  0.19215528  0.96871354     0.97900
C1182       C  0.80270831  0.20826379  0.52096606     1.03800
O1183       O  0.88921931  0.19667276  0.98959870    -0.78800
C1184       C  0.87354014  0.07407979  0.52382513     1.02100
C1185       C  0.98439615  0.14476770  0.53970533    -0.02700
C1186       C  0.96822916  0.17336960  0.55560557     0.07000
C1187       C  0.98492463  0.20231892  0.57084084    -0.02800
C1188       C  0.01737062  0.20265244  0.57005860    -0.02800
C1189       C  0.03334721  0.17389046  0.55445114     0.07100
C1190       C  0.01681801  0.14486070  0.53948515    -0.03000
Br1191     Br  0.03877964  0.10547684  0.51817871    -0.01500
Br1192     Br  0.96238254  0.10604371  0.51687141    -0.01600
Br1193     Br  0.04010494  0.24140972  0.59207859    -0.01600
Br1194     Br  0.96363944  0.24024697  0.59481324    -0.01600
C1195       C  0.14703605  0.29829090  0.66310837    -0.02700
C1196       C  0.13301646  0.28806824  0.69252315     0.07000
C1197       C  0.11961476  0.25205121  0.69541551    -0.02800
C1198       C  0.11842993  0.22791876  0.66864299    -0.02800
C1199       C  0.13310974  0.23779430  0.63944420     0.07100
C1200       C  0.14831071  0.27281382  0.63730477    -0.03000
Br1201     Br  0.17286196  0.28595761  0.59993123    -0.01500
Br1202     Br  0.16356032  0.34784626  0.65735718    -0.01600
Br1203     Br  0.09508964  0.18213061  0.67211366    -0.01600
Br1204     Br  0.10474520  0.23325761  0.73648786    -0.01600
C1205       C  0.16040569  0.24092908  0.89254923    -0.02700
C1206       C  0.13237848  0.25843828  0.88508330     0.07000
C1207       C  0.10507370  0.24621605  0.90013455    -0.02800
C1208       C  0.10615261  0.21868104  0.92428534    -0.02800
C1209       C  0.13448671  0.20256954  0.93321417     0.07100
C1210       C  0.16135641  0.21254346  0.91596468    -0.03000
Br1211     Br  0.20013083  0.18963362  0.92611978    -0.01500
Br1212     Br  0.19802915  0.25802701  0.87237868    -0.01600
Br1213     Br  0.06882721  0.20378477  0.94617805    -0.01600
Br1214     Br  0.06616686  0.26702533  0.88738711    -0.01600
C1215       C  0.86641195  0.30516700  0.65887812    -0.02700
C1216       C  0.86669185  0.29114334  0.69056748     0.07000
C1217       C  0.86842738  0.25214456  0.69496173    -0.02800
C1218       C  0.86747966  0.22767994  0.66830174    -0.02800
C1219       C  0.86870738  0.24149871  0.63629992     0.07100
C1220       C  0.86918856  0.28091949  0.63203605    -0.03000
Br1221     Br  0.87636380  0.30338640  0.59016875    -0.01500
Br1222     Br  0.86402402  0.35802602  0.65233244    -0.01600
Br1223     Br  0.86266088  0.17519335  0.67683987    -0.01600
Br1224     Br  0.87244921  0.23082624  0.73763212    -0.01600
C1225       C  0.86701931  0.22788711  0.88179456    -0.02700
C1226       C  0.86887497  0.26723779  0.88641621     0.07000
C1227       C  0.87072517  0.28089384  0.91846948    -0.02800
C1228       C  0.87227904  0.25619166  0.94479434    -0.02800
C1229       C  0.86896603  0.21734249  0.94012076     0.07100
C1230       C  0.86584237  0.20354164  0.90856312    -0.03000
Br1231     Br  0.86194379  0.15069229  0.90195679    -0.01500
Br1232     Br  0.86799966  0.20517854  0.83930242    -0.01600
Br1233     Br  0.87900822  0.27704350  0.98739811    -0.01600
Br1234     Br  0.86954822  0.33350205  0.92777717    -0.01600
C1235       C  0.98492393  0.32490969  0.78128783    -0.02700
C1236       C  0.96840412  0.33785247  0.80837095     0.07000
C1237       C  0.98501618  0.35222249  0.83513771    -0.02800
C1238       C  0.01756746  0.35221842  0.83531322    -0.02800
C1239       C  0.03409438  0.33801923  0.80865683     0.07100
C1240       C  0.01747072  0.32524128  0.78133337    -0.03000
Br1241     Br  0.03908754  0.31103444  0.74258384    -0.01500
Br1242     Br  0.96308344  0.30910145  0.74294890    -0.01600
Br1243     Br  0.03928101  0.37074314  0.87287264    -0.01600
Br1244     Br  0.96336086  0.37093080  0.87246442    -0.01600
C1245       C  0.75069736  0.10102601  0.58817052    -0.02700
C1246       C  0.78028403  0.10167009  0.60280224     0.07000
C1247       C  0.78158841  0.09781327  0.63692446    -0.02800
C1248       C  0.75466819  0.10062474  0.65618164    -0.02800
C1249       C  0.72504078  0.10270443  0.64163742     0.07100
C1250       C  0.72358661  0.09955098  0.60733846    -0.03000
Br1251     Br  0.68461938  0.09101369  0.58571825    -0.01500
Br1252     Br  0.74603991  0.10357574  0.54171030    -0.01600
Br1253     Br  0.76001236  0.10362494  0.70254361    -0.01600
Br1254     Br  0.82008464  0.08565298  0.65771390    -0.01600
C1255       C  0.73421454  0.26336244  0.72145420    -0.02700
C1256       C  0.72524183  0.23165963  0.73879709     0.07000
C1257       C  0.74102582  0.22152436  0.76730211    -0.02800
C1258       C  0.76588283  0.24318751  0.77829662    -0.02800
C1259       C  0.77537575  0.27429304  0.76041723     0.07100
C1260       C  0.75926035  0.28475815  0.73223622    -0.03000
Br1261     Br  0.77173462  0.32781119  0.70760187    -0.01500
Br1262     Br  0.71334105  0.27616532  0.68189977    -0.01600
Br1263     Br  0.78557171  0.23195102  0.81891985    -0.01600
Br1264     Br  0.72834988  0.17860669  0.79199112    -0.01600
C1265       C  0.48700467  0.18118421  0.71350609    -0.02700
C1266       C  0.46974991  0.16573061  0.68772667     0.07000
C1267       C  0.48564471  0.14968927  0.66137164    -0.02800
C1268       C  0.51817553  0.14883920  0.66103311    -0.02800
C1269       C  0.53536303  0.16443658  0.68679300     0.07100
C1270       C  0.51948542  0.18120102  0.71273380    -0.03000
Br1271     Br  0.54193685  0.20352928  0.74816458    -0.01500
Br1272     Br  0.46648091  0.20020031  0.75138826    -0.01600
Br1273     Br  0.53909057  0.12848574  0.62389994    -0.01600
Br1274     Br  0.46319440  0.13046365  0.62453271    -0.01600
C1275       C  0.22344286  0.12580842  0.63664723    -0.02700
C1276       C  0.22365389  0.11200576  0.60448619     0.07000
C1277       C  0.25070443  0.09425390  0.59347468    -0.02800
C1278       C  0.27744450  0.09301145  0.61323297    -0.02800
C1279       C  0.27746951  0.10839146  0.64473087     0.07100
C1280       C  0.24935602  0.12199068  0.65696770    -0.03000
Br1281     Br  0.24526865  0.13559841  0.70179145    -0.01500
Br1282     Br  0.18933617  0.15440849  0.65286306    -0.01600
Br1283     Br  0.31344473  0.06737530  0.59808647    -0.01600
Br1284     Br  0.25130500  0.07066109  0.55158759    -0.01600
C1285       C  0.24411383  0.28456072  0.73687926    -0.02700
C1286       C  0.22316779  0.26573900  0.75763945     0.07000
C1287       C  0.23014223  0.23027345  0.76915062    -0.02800
C1288       C  0.25863699  0.21451096  0.76151795    -0.02800
C1289       C  0.27960482  0.23332667  0.74077708     0.07100
C1290       C  0.27255664  0.26873785  0.72913535    -0.03000
Br1291     Br  0.30169526  0.29567313  0.70261910    -0.01500
Br1292     Br  0.23329134  0.33110475  0.71687629    -0.01600
Br1293     Br  0.26970699  0.16838921  0.78207529    -0.01600
Br1294     Br  0.20092512  0.20340812  0.79562425    -0.01600
C1295       C  0.35557602  0.22995342  0.86140669    -0.02700
C1296       C  0.37047878  0.26503717  0.85871358     0.07000
C1297       C  0.38391342  0.27511829  0.82891389    -0.02800
C1298       C  0.38264937  0.25050697  0.80245641    -0.02800
C1299       C  0.37029013  0.21404022  0.80613186     0.07100
C1300       C  0.35679859  0.20406754  0.83590097    -0.03000
Br1301     Br  0.34096272  0.15440210  0.84262228    -0.01500
Br1302     Br  0.33104864  0.21774406  0.89898622    -0.01600
Br1303     Br  0.39583434  0.26917785  0.76073367    -0.01600
Br1304     Br  0.40514958  0.32217693  0.82394039    -0.01600
C1305       C  0.39864615  0.28194004  0.57591242    -0.02700
C1306       C  0.37066969  0.29845995  0.56658132     0.07000
C1307       C  0.34330068  0.28845858  0.58293566    -0.02800
C1308       C  0.34360204  0.26013389  0.60637969    -0.02800
C1309       C  0.37128990  0.24204444  0.61407991     0.07100
C1310       C  0.39897357  0.25385716  0.59954134    -0.03000
Br1311     Br  0.43741040  0.23179839  0.61220145    -0.01500
Br1312     Br  0.43650759  0.29720782  0.55537268    -0.01600
Br1313     Br  0.30559388  0.24403802  0.62635606    -0.01600
Br1314     Br  0.30469148  0.31078932  0.57112624    -0.01600
C1315       C  0.25460172  0.22654781  0.02498097    -0.02700
C1316       C  0.22379381  0.24249980  0.51346859     0.07000
C1317       C  0.22363887  0.26704394  0.48710515    -0.02800
C1318       C  0.25144963  0.27654089  0.47196762    -0.02800
C1319       C  0.28108312  0.26154197  0.98335865     0.07100
C1320       C  0.28187093  0.23591747  0.00884188    -0.03000
Br1321     Br  0.32046658  0.21487324  0.02252010    -0.01500
Br1322     Br  0.25578304  0.19237922  0.06086005    -0.01600
Br1323     Br  0.25156119  0.30934142  0.43514960    -0.01600
Br1324     Br  0.18536306  0.28667103  0.47111335    -0.01600
C1325       C  0.28211288  0.37723008  0.86266802    -0.02700
C1326       C  0.28182472  0.39091732  0.89490403     0.07000
C1327       C  0.25390601  0.40599429  0.90664232    -0.02800
C1328       C  0.22670791  0.40507015  0.88749011    -0.02800
C1329       C  0.22694485  0.39036593  0.85567190     0.07100
C1330       C  0.25541362  0.37815001  0.84311553    -0.03000
Br1331     Br  0.25853969  0.36042983  0.79928021    -0.01500
Br1332     Br  0.31790708  0.35303962  0.84501716    -0.01600
Br1333     Br  0.18923664  0.42544915  0.90481645    -0.01600
Br1334     Br  0.25260788  0.42881461  0.94888218    -0.01600
C1335       C  0.74054262  0.27931867  0.51634236    -0.02700
C1336       C  0.72639812  0.27016395  0.98984537     0.07000
C1337       C  0.73887217  0.24334942  0.96939267    -0.02800
C1338       C  0.76506762  0.22431925  0.97917869    -0.02800
C1339       C  0.77539334  0.22796235  0.51068287     0.07100
C1340       C  0.76693339  0.26072113  0.52641817    -0.03000
Br1341     Br  0.79071151  0.27909560  0.56262296    -0.01500
Br1342     Br  0.72720529  0.32221216  0.54030960    -0.01600
Br1343     Br  0.78075510  0.18568418  0.95170925    -0.01600
Br1344     Br  0.72096184  0.23425580  0.92735515    -0.01600
C1345       C  0.75367215  0.39991308  0.90853859    -0.02700
C1346       C  0.72394597  0.39814116  0.89426225     0.07000
C1347       C  0.72230027  0.40231761  0.86010047    -0.02800
C1348       C  0.74921271  0.40149794  0.84054507    -0.02800
C1349       C  0.77905297  0.40077692  0.85467583     0.07100
C1350       C  0.78059845  0.40306460  0.88907787    -0.03000
Br1351     Br  0.81942264  0.41283394  0.91049079    -0.01500
Br1352     Br  0.75876378  0.39670758  0.95494127    -0.01600
Br1353     Br  0.74374221  0.39937176  0.79419941    -0.01600
Br1354     Br  0.68316962  0.41186437  0.83947661    -0.01600
C1355       C  0.63059031  0.27218147  0.82810356    -0.02700
C1356       C  0.63537411  0.25805431  0.85977085     0.07000
C1357       C  0.63937787  0.21876253  0.86321220    -0.02800
C1358       C  0.63907721  0.19512010  0.83584199    -0.02800
C1359       C  0.63373484  0.20946611  0.80481738     0.07100
C1360       C  0.62892823  0.24810023  0.80123344    -0.03000
Br1361     Br  0.62102484  0.26951376  0.75904384    -0.01500
Br1362     Br  0.62774443  0.32493341  0.81958816    -0.01600
Br1363     Br  0.64428951  0.14219290  0.84091174    -0.01600
Br1364     Br  0.64449443  0.19496530  0.90483347    -0.01600
C1365       C  0.62591477  0.24569372  0.55048989    -0.02700
C1366       C  0.63155149  0.28424882  0.55461144     0.07000
C1367       C  0.63622935  0.29829431  0.58590156    -0.02800
C1368       C  0.63477657  0.27447455  0.61294235    -0.02800
C1369       C  0.63137607  0.23528781  0.60889411     0.07100
C1370       C  0.62648532  0.22131675  0.57713080    -0.03000
Br1371     Br  0.62079681  0.16878047  0.56849860    -0.01500
Br1372     Br  0.61851874  0.22468315  0.50794919    -0.01600
Br1373     Br  0.63474842  0.29785702  0.65515688    -0.01600
Br1374     Br  0.64339537  0.35076917  0.59188074    -0.01600
C1375       C  0.52131349  0.34338036  0.96573230    -0.02700
C1376       C  0.53646379  0.32582434  0.93987238     0.07000
C1377       C  0.51924649  0.30871089  0.91512204    -0.02800
C1378       C  0.48687992  0.30899670  0.91633134    -0.02800
C1379       C  0.47170421  0.32640016  0.94228799     0.07100
C1380       C  0.48895162  0.34394421  0.96679142    -0.03000
Br1381     Br  0.46816919  0.37026917  0.00083156    -0.01500
Br1382     Br  0.54500639  0.36628164  0.99985999    -0.01600
Br1383     Br  0.46329479  0.28611468  0.88213144    -0.01600
Br1384     Br  0.54013579  0.28625392  0.87899407    -0.01600
C1385       C  0.11472015  0.52786078  0.76253430    -0.02700
C1386       C  0.13282368  0.53660356  0.73511603     0.07000
C1387       C  0.15253457  0.50962739  0.72235452    -0.02800
C1388       C  0.15554207  0.47513420  0.73780352    -0.02800
C1389       C  0.13610077  0.46521624  0.76424732     0.07100
C1390       C  0.11516225  0.49179293  0.77602488    -0.03000
Br1391     Br  0.08642967  0.47910784  0.80989048    -0.01500
Br1392     Br  0.08999180  0.56572199  0.78231415    -0.01600
Br1393     Br  0.18936782  0.44399136  0.72421540    -0.01600
Br1394     Br  0.17784933  0.52108852  0.68509323    -0.01600
C1395       C  0.89060967  0.53632070  0.76456145    -0.02700
C1396       C  0.88977593  0.53897903  0.73038498     0.07000
C1397       C  0.89497001  0.50653603  0.71226322    -0.02800
C1398       C  0.89408363  0.47162363  0.72784245    -0.02800
C1399       C  0.88628064  0.46884292  0.76112803     0.07100
C1400       C  0.88776383  0.50156984  0.77995869    -0.03000
Br1401     Br  0.88500705  0.50026442  0.82653324    -0.01500
Br1402     Br  0.89652729  0.58057741  0.79039710    -0.01600
Br1403     Br  0.90557303  0.42790196  0.70394863    -0.01600
Br1404     Br  0.90318314  0.50928072  0.66651387    -0.01600
C1405       C  0.98992627  0.70408844  0.67763545    -0.02700
C1406       C  0.97221814  0.67430961  0.68984840     0.07000
C1407       C  0.98716883  0.64313797  0.70285747    -0.02800
C1408       C  0.01958419  0.64123167  0.70280493    -0.02800
C1409       C  0.03746273  0.67118996  0.69095717     0.07100
C1410       C  0.02235871  0.70279824  0.67855129    -0.03000
Br1411     Br  0.04586028  0.74384737  0.66095266    -0.01500
Br1412     Br  0.96971402  0.74581622  0.65783846    -0.01600
Br1413     Br  0.03919230  0.59779524  0.71990869    -0.01600
Br1414     Br  0.96314976  0.60379653  0.72244545    -0.01600
C1415       C  0.88842744  0.99812649  0.96310187    -0.02700
C1416       C  0.88414975  0.96589705  0.98220362     0.07000
C1417       C  0.88400058  0.96894851  0.51623412    -0.02800
C1418       C  0.88038209  0.00439188  0.53024612    -0.02800
C1419       C  0.88278324  0.03664767  0.51104931     0.07100
C1420       C  0.88898195  0.03366627  0.97767477    -0.03000
Br1421     Br  0.90050460  0.07605596  0.95154927    -0.01500
Br1422     Br  0.89255354  0.99530103  0.91659555    -0.01600
Br1423     Br  0.86925584  0.00734748  0.57548160    -0.01600
Br1424     Br  0.88822154  0.92716151  0.54531922    -0.01600
C1425       C  0.85021884  0.74263930  0.84977407    -0.02700
C1426       C  0.87802765  0.76236637  0.85514384     0.07000
C1427       C  0.90484678  0.75108494  0.83894046    -0.02800
C1428       C  0.90333384  0.72266220  0.81556581    -0.02800
C1429       C  0.87491933  0.70524947  0.80799121     0.07100
C1430       C  0.84857208  0.71442814  0.82617008    -0.03000
Br1431     Br  0.80940920  0.69099274  0.81685473    -0.01500
Br1432     Br  0.81398237  0.75493210  0.87438473    -0.01600
Br1433     Br  0.94018233  0.70807274  0.79292958    -0.01600
Br1434     Br  0.94391484  0.77356700  0.84962994    -0.01600
C1435       C  0.89483153  0.75516743  0.54829939    -0.02700
C1436       C  0.87763953  0.78868986  0.54881823     0.07000
C1437       C  0.86043524  0.79732745  0.57667115    -0.02800
C1438       C  0.85814499  0.77178608  0.60230210    -0.02800
C1439       C  0.87490855  0.73815483  0.60158923     0.07100
C1440       C  0.89392207  0.73067239  0.57483450    -0.03000
Br1441     Br  0.92051827  0.68786014  0.57504592    -0.01500
Br1442     Br  0.91931716  0.74045244  0.51134316    -0.01600
Br1443     Br  0.83078709  0.78338347  0.63776983    -0.01600
Br1444     Br  0.84147060  0.84539993  0.58113774    -0.01600
C1445       C  0.12694447  0.99714471  0.96573736    -0.02700
C1446       C  0.12756693  0.96524077  0.98564679     0.07000
C1447       C  0.12300776  0.96815131  0.52023894    -0.02800
C1448       C  0.12224312  0.00392353  0.53411517    -0.02800
C1449       C  0.12291563  0.03551867  0.51413385     0.07100
C1450       C  0.12325866  0.03250897  0.97971439    -0.03000
Br1451     Br  0.11913545  0.07528415  0.95189033    -0.01500
Br1452     Br  0.13346094  0.99415087  0.91957954    -0.01600
Br1453     Br  0.12338664  0.00911289  0.58058971    -0.01600
Br1454     Br  0.11622343  0.92588479  0.54835311    -0.01600
C1455       C  0.16442099  0.73737981  0.86125448    -0.02700
C1456       C  0.13754733  0.75729457  0.86840977     0.07000
C1457       C  0.10969758  0.74670889  0.85358146    -0.02800
C1458       C  0.10962526  0.72139433  0.82762256    -0.02800
C1459       C  0.13750160  0.70495791  0.81724150     0.07100
C1460       C  0.16426062  0.71037950  0.83654421    -0.03000
Br1461     Br  0.20116819  0.68176536  0.83001319    -0.01500
Br1462     Br  0.20175806  0.74767455  0.88510251    -0.01600
Br1463     Br  0.07072162  0.70839818  0.80764099    -0.01600
Br1464     Br  0.07134891  0.76432312  0.87095221    -0.01600
C1465       C  0.15516872  0.79994508  0.58849965    -0.02700
C1466       C  0.13769181  0.79231922  0.56040391     0.07000
C1467       C  0.11965615  0.75902981  0.55932043    -0.02800
C1468       C  0.11837594  0.73505777  0.58618704    -0.02800
C1469       C  0.13709967  0.74184696  0.61348390     0.07100
C1470       C  0.15607260  0.77410473  0.61405666    -0.03000
Br1471     Br  0.18549012  0.78227137  0.64858829    -0.01500
Br1472     Br  0.17755064  0.84628085  0.59303168    -0.01600
Br1473     Br  0.08993060  0.69330918  0.58522503    -0.01600
Br1474     Br  0.09881963  0.74242249  0.52031609    -0.01600
C1475       C  0.02670054  0.84997241  0.90879962    -0.02700
C1476       C  0.04126954  0.84033813  0.93815269     0.07000
C1477       C  0.02356210  0.83513778  0.96629521    -0.02800
C1478       C  0.99133784  0.83654465  0.96460685    -0.02800
C1479       C  0.97663667  0.84312970  0.93477995     0.07100
C1480       C  0.99441313  0.85157873  0.90718962    -0.03000
Br1481     Br  0.97483975  0.86514359  0.86703295    -0.01500
Br1482     Br  0.05063955  0.86029467  0.87036338    -0.01600
Br1483     Br  0.96754096  0.83264966  0.00382504    -0.01600
Br1484     Br  0.04342498  0.82916453  0.00771512    -0.01600
C1485       C  0.38730074  0.49688725  0.96392465    -0.02700
C1486       C  0.38740123  0.46544890  0.98416125     0.07000
C1487       C  0.39088780  0.47017312  0.51976599    -0.02800
C1488       C  0.39117644  0.50596952  0.53354291    -0.02800
C1489       C  0.38712192  0.53736674  0.51364913     0.07100
C1490       C  0.38797720  0.53276259  0.97755577    -0.03000
Br1491     Br  0.38867230  0.57531563  0.94915654    -0.01500
Br1492     Br  0.38305256  0.49128392  0.91768434    -0.01600
Br1493     Br  0.39460898  0.51105979  0.57988859    -0.01600
Br1494     Br  0.39582506  0.42738173  0.54734050    -0.01600
C1495       C  0.25816405  0.77621091  0.97612086    -0.02700
C1496       C  0.22929619  0.76703549  0.99002642     0.07000
C1497       C  0.22810159  0.74316288  0.01715703    -0.02800
C1498       C  0.25580060  0.73087173  0.53233738    -0.02800
C1499       C  0.28437519  0.74188216  0.51940887     0.07100
C1500       C  0.28585434  0.76465801  0.49200447    -0.03000
Br1501     Br  0.32525899  0.78019858  0.47471904    -0.01500
Br1502     Br  0.26083024  0.80080230  0.93465716    -0.01600
Br1503     Br  0.25453714  0.69940355  0.57019714    -0.01600
Br1504     Br  0.18964315  0.72615630  0.03531919    -0.01600
C1505       C  0.25974119  0.61269965  0.66215216    -0.02700
C1506       C  0.23001899  0.60851182  0.64801314     0.07000
C1507       C  0.22871160  0.59877814  0.61474791    -0.02800
C1508       C  0.25586789  0.59683090  0.59569448    -0.02800
C1509       C  0.28509709  0.60686202  0.60865715     0.07100
C1510       C  0.28676951  0.61282285  0.64269392    -0.03000
Br1511     Br  0.32576536  0.62237126  0.66399441    -0.01500
Br1512     Br  0.26450347  0.61929937  0.70840139    -0.01600
Br1513     Br  0.25268159  0.57744595  0.55218807    -0.01600
Br1514     Br  0.18974704  0.58618446  0.59468574    -0.01600
C1515       C  0.61526141  0.46657132  0.51755080    -0.02700
C1516       C  0.61832061  0.46212576  0.98367072     0.07000
C1517       C  0.61795845  0.49371885  0.96341592    -0.02800
C1518       C  0.61867844  0.52953026  0.97717031    -0.02800
C1519       C  0.62086216  0.53368557  0.51175300     0.07100
C1520       C  0.61684240  0.50228473  0.53157041    -0.03000
Br1521     Br  0.61597150  0.50737030  0.57802198    -0.01500
Br1522     Br  0.60512740  0.42495016  0.54504593    -0.01600
Br1523     Br  0.61830335  0.57222786  0.94886707    -0.01600
Br1524     Br  0.61719192  0.48922361  0.91683843    -0.01600
C1525       C  0.75816971  0.77338602  0.96324984    -0.02700
C1526       C  0.78781040  0.76181940  0.97300447     0.07000
C1527       C  0.79046381  0.73105708  0.99393430    -0.02800
C1528       C  0.76353037  0.71562273  0.50750350    -0.02800
C1529       C  0.73425084  0.73130311  0.50149716     0.07100
C1530       C  0.73158406  0.75929812  0.47798624    -0.03000
Br1531     Br  0.69160834  0.77705708  0.46495143    -0.01500
Br1532     Br  0.75294881  0.80471195  0.92572532    -0.01600
Br1533     Br  0.76789477  0.67084888  0.53262336    -0.01600
Br1534     Br  0.82993668  0.71036013  0.00566835    -0.01600
C1535       C  0.74298577  0.64587088  0.60779044    -0.02700
C1536       C  0.72652234  0.61268698  0.60231444     0.07000
C1537       C  0.73666697  0.57988618  0.61739260    -0.02800
C1538       C  0.76389811  0.58032593  0.63651891    -0.02800
C1539       C  0.78210744  0.61292495  0.63879683     0.07100
C1540       C  0.77183637  0.64535637  0.62319387    -0.03000
Br1541     Br  0.79670115  0.68994527  0.62351187    -0.01500
Br1542     Br  0.72394353  0.69280523  0.59806403    -0.01600
Br1543     Br  0.77673507  0.53641387  0.65893612    -0.01600
Br1544     Br  0.71258337  0.53517221  0.61281747    -0.01600
C1545       C  0.52320292  0.64737648  0.53391611    -0.02700
C1546       C  0.54003121  0.67755152  0.54698248     0.07000
C1547       C  0.52406334  0.70747621  0.56089776    -0.02800
C1548       C  0.49162915  0.70660260  0.56272450    -0.02800
C1549       C  0.47490443  0.67567113  0.55093564     0.07100
C1550       C  0.49078339  0.64632498  0.53605626    -0.03000
Br1551     Br  0.46886412  0.60573834  0.01654272    -0.01500
Br1552     Br  0.54543789  0.60926864  0.01055404    -0.01600
Br1553     Br  0.47011940  0.74698818  0.58308499    -0.01600
Br1554     Br  0.54663532  0.74870973  0.57933299    -0.01600
C1555       C  0.61392215  0.98463790  0.77008569    -0.02700
C1556       C  0.63708752  0.95981378  0.76040625     0.07000
C1557       C  0.65691543  0.96991007  0.73441199    -0.02800
C1558       C  0.65301570  0.00364729  0.71808620    -0.02800
C1559       C  0.63153424  0.02949475  0.72938780     0.07100
C1560       C  0.61178383  0.01979886  0.75520205    -0.03000
Br1561     Br  0.58123570  0.05458695  0.76942293    -0.01500
Br1562     Br  0.58440981  0.97024690  0.80266276    -0.01600
Br1563     Br  0.67844289  0.01496692  0.68092727    -0.01600
Br1564     Br  0.69179934  0.93966380  0.72225713    -0.01600
C1565       C  0.75119197  0.72212774  0.72242826    -0.02700
C1566       C  0.78046279  0.73731767  0.72990952     0.07000
C1567       C  0.78332392  0.76370692  0.75473637    -0.02800
C1568       C  0.75728783  0.77415159  0.77234647    -0.02800
C1569       C  0.72756387  0.76174391  0.76274939     0.07100
C1570       C  0.72475359  0.73461412  0.73826935    -0.03000
Br1571     Br  0.68538067  0.71315600  0.72602387    -0.01500
Br1572     Br  0.74699090  0.68277989  0.69122858    -0.01600
Br1573     Br  0.76314416  0.80313134  0.81135580    -0.01600
Br1574     Br  0.82327052  0.78363813  0.76654926    -0.01600
C1575       C  0.72879602  0.89790169  0.88654916    -0.02700
C1576       C  0.72935696  0.89565631  0.85229805     0.07000
C1577       C  0.75816926  0.90153075  0.83661170    -0.02800
C1578       C  0.78582944  0.90235689  0.85480409     0.02000
C1579       C  0.78547798  0.89832798  0.88887783     0.07100
C1580       C  0.75640282  0.89974187  0.90474144    -0.03000
Br1581     Br  0.75323919  0.90410774  0.95132801    -0.01500
Br1582     Br  0.69010153  0.90015057  0.90986161    -0.01600
Br1583     Br  0.82422188  0.91107879  0.83205889    -0.01600
Br1584     Br  0.76075014  0.90900020  0.79038793    -0.01600
C1585       C  0.60830468  0.74230051  0.89807465    -0.02700
C1586       C  0.63562194  0.75508176  0.88332957     0.07000
C1587       C  0.66331281  0.73585819  0.88877225    -0.02800
C1588       C  0.66415891  0.70606108  0.91073953    -0.02800
C1589       C  0.63751284  0.69592049  0.92815320     0.07100
C1590       C  0.60928490  0.71291256  0.92048138    -0.03000
Br1591     Br  0.57223407  0.69669102  0.94221460    -0.01500
Br1592     Br  0.56950976  0.76450590  0.88709132    -0.01600
Br1593     Br  0.70255848  0.68137352  0.91911264    -0.01600
Br1594     Br  0.70057163  0.75156064  0.86709501    -0.01600
C1595       C  0.65435813  0.79617021  0.66122793    -0.02700
C1596       C  0.63674858  0.78682207  0.68880819     0.07000
C1597       C  0.61876653  0.75356137  0.68823642    -0.02800
C1598       C  0.61895357  0.73020103  0.66088590    -0.02800
C1599       C  0.63838930  0.73816922  0.63437197     0.07100
C1600       C  0.65601707  0.77157791  0.63474083    -0.03000
Br1601     Br  0.68381209  0.78402345  0.59974124    -0.01500
Br1602     Br  0.67519686  0.84377848  0.65852992    -0.01600
Br1603     Br  0.59076004  0.68825387  0.65951238    -0.01600
Br1604     Br  0.59468297  0.73724925  0.72514076    -0.01600
C1605       C  0.34451405  0.02112897  0.75099341    -0.02700
C1606       C  0.37029645  0.03546083  0.73419087     0.07000
C1607       C  0.39768345  0.01474618  0.73333807    -0.02800
C1608       C  0.39872842  0.97939505  0.74828758    -0.02800
C1609       C  0.37328811  0.96604324  0.76626969     0.07100
C1610       C  0.34642380  0.98751980  0.76784830    -0.03000
Br1611     Br  0.31139626  0.97099080  0.79258886    -0.01500
Br1612     Br  0.30550417  0.04671121  0.74991074    -0.01600
Br1613     Br  0.43463601  0.94889482  0.74385131    -0.01600
Br1614     Br  0.43395776  0.03552141  0.71333159    -0.01600
C1615       C  0.40430913  0.74720119  0.90098713    -0.02700
C1616       C  0.37738466  0.75818571  0.88488766     0.07000
C1617       C  0.34938672  0.73945067  0.89140549    -0.02800
C1618       C  0.34781087  0.71181998  0.91542652    -0.02800
C1619       C  0.37424064  0.70313945  0.93361841     0.07100
C1620       C  0.40273143  0.71999578  0.92537600    -0.03000
Br1621     Br  0.43954489  0.70676569  0.94869624    -0.01500
Br1622     Br  0.44346222  0.76866796  0.88903105    -0.01600
Br1623     Br  0.30862784  0.68875546  0.92533059    -0.01600
Br1624     Br  0.31259605  0.75322237  0.86859046    -0.01600
C1625       C  0.39393827  0.75493300  0.69463859    -0.02700
C1626       C  0.37609625  0.78799903  0.69275571     0.07000
C1627       C  0.35818094  0.79422568  0.66484402    -0.02800
C1628       C  0.35681394  0.76733954  0.64024352    -0.02800
C1629       C  0.37569717  0.73560586  0.64150213     0.07100
C1630       C  0.39455702  0.72984770  0.66856141    -0.03000
Br1631     Br  0.42215768  0.68804815  0.66961993    -0.01500
Br1632     Br  0.41566690  0.74034997  0.73348140    -0.01600
Br1633     Br  0.32720172  0.77324393  0.60580198    -0.01600
Br1634     Br  0.33610198  0.84006434  0.65911615    -0.01600
C1635       C  0.49083115  0.85108354  0.83577518    -0.02700
C1636       C  0.47434410  0.84033001  0.80784260     0.07000
C1637       C  0.49043518  0.83171283  0.77926664    -0.02800
C1638       C  0.52275200  0.83104419  0.77926304    -0.02800
C1639       C  0.53921590  0.83885421  0.80786959     0.07100
C1640       C  0.52320952  0.85047221  0.83577478    -0.03000
Br1641     Br  0.54526703  0.86481617  0.87447129    -0.01500
Br1642     Br  0.46927098  0.86551474  0.87457583    -0.01600
Br1643     Br  0.54439378  0.82240406  0.73926432    -0.01600
Br1644     Br  0.46842926  0.82338485  0.73938079    -0.01600
C1645       C  0.22818272  0.76192319  0.76510522    -0.02700
C1646       C  0.22818743  0.74128805  0.73628447     0.07000
C1647       C  0.25614219  0.73322118  0.72079321    -0.02800
C1648       C  0.28421220  0.74203944  0.73574045    -0.02800
C1649       C  0.28448214  0.76258874  0.76480409     0.07100
C1650       C  0.25615598  0.77145527  0.77986689    -0.03000
Br1651     Br  0.25509602  0.79536819  0.82172660    -0.01500
Br1652     Br  0.19007805  0.77811863  0.78436116    -0.01600
Br1653     Br  0.32150200  0.72436541  0.71627122    -0.01600
Br1654     Br  0.25554803  0.71249894  0.67767610    -0.01600
C1655       C  0.25592357  0.89667813  0.84315310    -0.02700
C1656       C  0.28554686  0.89312659  0.85734619     0.07000
C1657       C  0.28792730  0.89661112  0.89159377    -0.02800
C1658       C  0.26123429  0.89783852  0.91117669    -0.02800
C1659       C  0.23158939  0.89707735  0.89690361     0.07100
C1660       C  0.22953993  0.90026859  0.86281075    -0.03000
Br1661     Br  0.19061061  0.91187816  0.84248770    -0.01500
Br1662     Br  0.24967827  0.89437726  0.79680882    -0.01600
Br1663     Br  0.26631835  0.89982346  0.95767996    -0.01600
Br1664     Br  0.32762103  0.90066352  0.91281764    -0.01600
loop_ 
_geom_bond_atom_site_label_1 
_geom_bond_atom_site_label_2 
_geom_bond_distance 
_geom_bond_site_symmetry_2 
_ccdc_geom_bond_type 
Fe1          O17   2.051       .  S
Fe1           O7   2.135       .  S
Fe1          O14   2.150       .  S
Fe1           O6   2.051       .  S
Fe1          O12   1.916       .  S
Fe2           O5   1.996       .  S
Fe2           O9   2.110       .  S
Fe2          O13   2.041       .  S
Fe2          O18   2.122       .  S
Fe2          O12   1.931       .  S
Fe3          O21   2.122       .  S
Fe3           O8   2.027       .  S
Fe3          O15   2.022       .  S
Fe3           O4   2.084       .  S
Fe3          O12   1.921       .  S
O4           C11   1.275       .  A
O5           C19   1.260       .  A
O6           C11   1.268       .  A
O7           C10   1.285       .  A
O8           C20   1.250       .  A
O9           C22   1.275       .  A
C10          O15   1.262       .  A
C10         C784   1.483       .  S
C11         C804   1.474       .  S
O13          C16   1.268       .  A
O14          C16   1.289       .  A
C16         C777   1.490       .  S
O17          C22   1.263       .  A
O18          C20   1.275       .  A
C19          O21   1.282       .  A
C19         C817   1.474       .  S
C20         C794   1.497       .  S
C22         C824   1.514       .  S
Fe23         O39   2.158       .  S
Fe23         O29   2.044       .  S
Fe23         O36   2.058       .  S
Fe23         O28   2.135       .  S
Fe23         O34   1.917       .  S
Fe24         O27   2.107       .  S
Fe24         O31   2.014       .  S
Fe24         O35   2.121       .  S
Fe24         O40   1.994       .  S
Fe24         O34   1.920       .  S
Fe25         O43   2.039       .  S
Fe25         O30   2.118       .  S
Fe25         O37   2.088       .  S
Fe25         O26   2.013       .  S
Fe25         O34   1.910       .  S
O26          C33   1.261       .  A
O27          C41   1.269       .  A
O28          C33   1.286       .  A
O29          C32   1.267       .  A
O30          C42   1.285       .  A
O31          C44   1.260       .  A
C32          O37   1.276       .  A
C32         C807   1.475       .  S
C33         C754   1.478       .  S
O35          C38   1.273       .  A
O36          C38   1.267       .  A
C38         C744   1.515       .  S
O39          C44   1.290       .  A
O40          C42   1.264       .  A
C41          O43   1.252       .  A
C41         C764   1.497       .  S
C42         C737   1.476       .  S
C44         C724   1.491       .  S
Fe45         O61   2.083       .  S
Fe45         O51   2.092       .  S
Fe45         O58   2.105       .  S
Fe45         O50   2.069       .  S
Fe45         O56   1.979       .  S
Fe46         O49   1.999       .  S
Fe46         O53   2.091       .  S
Fe46         O57   2.024       .  S
Fe46        O894   2.098   1_554  S
Fe46         O56   1.975       .  S
Fe47         O65   2.095       .  S
Fe47         O59   2.031       .  S
Fe47         O48   2.087       .  S
Fe47        O884   2.016   1_554  S
Fe47         O56   1.974       .  S
O48          C55   1.276       .  A
O49          C63   1.253       .  A
O50          C55   1.273       .  A
O51          C54   1.272       .  A
O52        Fe879   2.019       .  S
O52          C64   1.261       .  A
O53          C66   1.277       .  A
C54          O59   1.258       .  A
C54         C767   1.494       .  S
C55         C714   1.484       .  S
O57          C60   1.257       .  A
O58          C60   1.272       .  A
C60         C687   1.494       .  S
O61          C66   1.272       .  A
O62        Fe878   2.095       .  S
O62          C64   1.276       .  A
C63          O65   1.276       .  A
C63         C697   1.469       .  S
C64         C757   1.475       .  S
C66         C704   1.493       .  S
Fe67         O83   2.097       .  S
Fe67         O73   2.089       .  S
Fe67         O80   2.096       .  S
Fe67         O72   2.093       .  S
Fe67         O78   1.975       .  S
Fe68         O75   2.048       .  S
Fe68         O79   2.090       .  S
Fe68         O84   2.013       .  S
Fe68        O903   2.101   1_554  S
Fe68         O78   1.974       .  S
Fe69         O74   2.066       .  S
Fe69         O81   2.065       .  S
Fe69         O70   2.022       .  S
Fe69        O919   2.015   1_554  S
Fe69         O78   1.976       .  S
O70          C77   1.257       .  A
O71        Fe900   2.103       .  S
O71          C85   1.277       .  A
O72          C77   1.273       .  A
O73          C76   1.275       .  A
O74          C86   1.269       .  A
O75          C88   1.265       .  A
C76          O81   1.270       .  A
C76         C717   1.484       .  S
C77         C797   1.483       .  S
O79          C82   1.272       .  A
O80          C82   1.273       .  A
C82         C677   1.528       .  S
O83          C88   1.274       .  A
O84          C86   1.259       .  A
C85          O87   1.259       .  A
C85         C787   1.481       .  S
C86         C667   1.452       .  S
O87        Fe901   2.017       .  S
C88         C657   1.496       .  S
Fe89        O105   2.053       .  S
Fe89         O95   2.124       .  S
Fe89        O102   2.133       .  S
Fe89         O94   2.035       .  S
Fe89        O100   1.914       .  S
Fe90         O93   2.002       .  S
Fe90         O97   2.108       .  S
Fe90        O101   2.025       .  S
Fe90        O938   2.118       .  S
Fe90        O100   1.944       .  S
Fe91        O109   2.113       .  S
Fe91        O103   2.031       .  S
Fe91         O92   2.086       .  S
Fe91        O928   2.037       .  S
Fe91        O100   1.923       .  S
O92          C99   1.274       .  A
O93         C107   1.264       .  A
O94          C99   1.263       .  A
O95          C98   1.284       .  A
O96        Fe923   2.036   1_554  S
O96         C108   1.251       .  A
O97         C110   1.272       .  A
C98         O103   1.264       .  A
C98         C624   1.480       .  S
C99         C644   1.473       .  S
O101        C104   1.268       .  A
O102        C104   1.288       .  A
C104        C614   1.507       .  S
O105        C110   1.263       .  A
O106       Fe922   2.117   1_554  S
O106        C108   1.272       .  A
C107        O109   1.281       .  A
C107        C664   1.473       .  S
C108        C634   1.497       .  S
C110        C827   1.508       .  S
Fe111       O127   2.155       .  S
Fe111       O117   2.059       .  S
Fe111       O124   2.070       .  S
Fe111       O116   2.140       .  S
Fe111       O122   1.921       .  S
Fe112       O119   2.023       .  S
Fe112       O123   2.098       .  S
Fe112       O128   2.009       .  S
Fe112       O947   2.113       .  S
Fe112       O122   1.942       .  S
Fe113       O118   2.103       .  S
Fe113       O125   2.071       .  S
Fe113       O114   2.016       .  S
Fe113       O963   2.030       .  S
Fe113       O122   1.925       .  S
O114        C121   1.261       .  A
O115       Fe944   2.113   1_554  S
O115        C129   1.272       .  A
O116        C121   1.287       .  A
O117        C120   1.268       .  A
O118        C130   1.279       .  A
O119        C132   1.265       .  A
C120        O125   1.271       .  A
C120        C647   1.475       .  S
C121        C594   1.483       .  S
O123        C126   1.267       .  A
O124        C126   1.269       .  A
C126        C747   1.516       .  S
O127        C132   1.294       .  A
O128        C130   1.264       .  A
C129        O131   1.250   1_554  A
C129        C604   1.495       .  S
C130        C694   1.481       .  S
O131       Fe945   2.030       .  S
C132        C584   1.519       .  S
Fe133       O149   2.076       .  S
Fe133       O139   2.099       .  S
Fe133       O146   2.112       .  S
Fe133       O138   2.072       .  S
Fe133       O144   1.980       .  S
Fe134       O137   2.002       .  S
Fe134       O141   2.100       .  S
Fe134       O145   2.026       .  S
Fe134       O150   2.103       .  S
Fe134       O144   1.980       .  S
Fe135       O153   2.088       .  S
Fe135       O140   2.013       .  S
Fe135       O147   2.016       .  S
Fe135       O136   2.083       .  S
Fe135       O144   1.974       .  S
O136        C143   1.276       .  A
O137        C151   1.258       .  A
O138        C143   1.273       .  A
O139        C142   1.273       .  A
O140        C152   1.257       .  A
O141        C154   1.274       .  A
C142        O147   1.254       .  A
C142        C607   1.490       .  S
C143        C574   1.485       .  S
O145        C148   1.261       .  A
O146        C148   1.276       .  A
C148        C564   1.496       .  S
O149        C154   1.270       .  A
O150        C152   1.275       .  A
C151        O153   1.275       .  A
C151        C734   1.463       .  S
C152        C597   1.483       .  S
C154        C707   1.498       .  S
Fe155       O171   2.129       .  S
Fe155       O161   2.084       .  S
Fe155       O168   2.084       .  S
Fe155       O160   2.095       .  S
Fe155       O166   1.940       .  S
Fe156       O159   2.092       .  S
Fe156       O163   2.032       .  S
Fe156       O167   2.107       .  S
Fe156       O172   2.014       .  S
Fe156       O166   1.951       .  S
Fe157       O175   2.040       .  S
Fe157       O162   2.092       .  S
Fe157       O169   2.078       .  S
Fe157       O158   2.033       .  S
Fe157       O166   1.952       .  S
O158        C165   1.262       .  A
O159        C173   1.270       .  A
O160        C165   1.276       .  A
O161        C164   1.276       .  A
O162        C174   1.277       .  A
O163        C176   1.265       .  A
C164        O169   1.273       .  A
C164        C577   1.492       .  S
C165        C637   1.493       .  S
O167        C170   1.271       .  A
O168        C170   1.268       .  A
C170        C674   1.524       .  S
O171        C176   1.286       .  A
O172        C174   1.264       .  A
C173        O175   1.261       .  A
C173        C627   1.501       .  S
C174        C814   1.466       .  S
C176        C554   1.484       .  S
Fe177       O193   2.077       .  S
Fe177       O183   2.125       .  S
Fe177       O190   2.125       .  S
Fe177       O182   2.051       .  S
Fe177       O188   1.915       .  S
Fe178       O181   2.018       .  S
Fe178       O185   2.127       .  S
Fe178       O189   2.039       .  S
Fe178      O1026   2.133       .  S
Fe178       O188   1.935       .  S
Fe179       O197   2.091       .  S
Fe179       O191   2.038       .  S
Fe179       O180   2.085       .  S
Fe179      O1016   2.031       .  S
Fe179       O188   1.924       .  S
O180        C187   1.272       .  A
O181        C195   1.262       .  A
O182        C187   1.267       .  A
O183        C186   1.282       .  A
O184      Fe1011   2.035   1_554  S
O184        C196   1.257       .  A
O185        C198   1.279       .  A
C186        O191   1.263       .  A
C186        C524   1.506       .  S
C187        C544   1.469       .  S
O189        C192   1.267       .  A
O190        C192   1.283       .  A
C192        C684   1.508       .  S
O193        C198   1.273       .  A
O194      Fe1010   2.132   1_554  S
O194        C196   1.279       .  A
C195        O197   1.273       .  A
C195        C504   1.454       .  S
C196        C534   1.493       .  S
C198        C514   1.530       .  S
Fe199       O215   2.090       .  S
Fe199       O205   2.067       .  S
Fe199       O212   2.082       .  S
Fe199       O204   2.086       .  S
Fe199       O210   1.973       .  S
Fe200       O207   2.043       .  S
Fe200       O211   2.089       .  S
Fe200       O216   2.003       .  S
Fe200      O1035   2.094       .  S
Fe200       O210   1.974       .  S
Fe201       O206   2.076       .  S
Fe201       O213   2.070       .  S
Fe201       O202   2.033       .  S
Fe201      O1051   2.026       .  S
Fe201       O210   1.974       .  S
O202        C209   1.258       .  A
O203      Fe1032   2.097   1_554  S
O203        C217   1.276       .  A
O204        C209   1.270       .  A
O205        C208   1.271       .  A
O206        C218   1.271       .  A
O207        C220   1.264       .  A
C208        O213   1.272       .  A
C208        C547   1.470       .  S
C209        C464   1.490       .  S
O211        C214   1.272       .  A
O212        C214   1.271       .  A
C214        C494   1.514       .  S
O215        C220   1.272       .  A
O216        C218   1.257       .  A
C217        O219   1.262       .  A
C217        C474   1.482       .  S
C218        C487   1.452       .  S
O219      Fe1033   2.034   1_554  S
C220        C654   1.487       .  S
Fe221       O237   2.076       .  S
Fe221       O227   2.132       .  S
Fe221       O234   2.151       .  S
Fe221       O226   2.070       .  S
Fe221       O232   1.926       .  S
Fe222       O225   2.008       .  S
Fe222       O229   2.115       .  S
Fe222       O233   2.032       .  S
Fe222       O238   2.117       .  S
Fe222       O232   1.929       .  S
Fe223       O241   2.136       .  S
Fe223       O228   2.034       .  S
Fe223       O235   2.028       .  S
Fe223       O224   2.104       .  S
Fe223       O232   1.926       .  S
O224        C231   1.278       .  A
O225        C239   1.258       .  A
O226        C231   1.272       .  A
O227        C230   1.286       .  A
O228        C240   1.254       .  A
O229        C242   1.276       .  A
C230        O235   1.264       .  A
C230        C477   1.481       .  S
C231        C434   1.497       .  S
O233        C236   1.266       .  A
O234        C236   1.289       .  A
C236        C774   1.492       .  S
O237        C242   1.270       .  A
O238        C240   1.274       .  A
C239        O241   1.283       .  A
C239        C457   1.474       .  S
C240        C467   1.492       .  S
C242        C447   1.511       .  S
Fe243       O259   2.123       .  S
Fe243       O249   2.071       .  S
Fe243       O256   2.072       .  S
Fe243       O248   2.114       .  S
Fe243       O254   1.925       .  S
Fe244       O247   2.136       .  S
Fe244       O251   2.040       .  S
Fe244       O255   2.135       .  S
Fe244       O260   2.012       .  S
Fe244       O254   1.937       .  S
Fe245       O263   2.030       .  S
Fe245       O250   2.108       .  S
Fe245       O257   2.108       .  S
Fe245       O246   2.042       .  S
Fe245       O254   1.913       .  S
O246        C253   1.261       .  A
O247        C261   1.282       .  A
O248        C253   1.277       .  A
O249        C252   1.275       .  A
O250        C262   1.274       .  A
O251        C264   1.264       .  A
C252        O257   1.279       .  A
C252        C437   1.496       .  S
C253        C537   1.507       .  S
O255        C258   1.286       .  A
O256        C258   1.271       .  A
C258        C417   1.527       .  S
O259        C264   1.281       .  A
O260        C262   1.258       .  A
C261        O263   1.257       .  A
C261        C527   1.492       .  S
C262        C424   1.457       .  S
C264        C727   1.482       .  S
Fe265       O281   2.073       .  S
Fe265       O271   2.122       .  S
Fe265       O278   2.125       .  S
Fe265       O270   2.062       .  S
Fe265       O276   1.932       .  S
Fe266       O269   2.022       .  S
Fe266       O273   2.127       .  S
Fe266       O277   2.037       .  S
Fe266       O282   2.141       .  S
Fe266       O276   1.950       .  S
Fe267       O285   2.110       .  S
Fe267       O272   2.034       .  S
Fe267       O279   2.042       .  S
Fe267       O268   2.095       .  S
Fe267       O276   1.929       .  S
O268        C275   1.274       .  A
O269        C283   1.263       .  A
O270        C275   1.267       .  A
O271        C274   1.281       .  A
O272        C284   1.255       .  A
O273        C286   1.278       .  A
C274        O279   1.264       .  A
C274        C394   1.520       .  S
C275        C404   1.490       .  S
O277        C280   1.269       .  A
O278        C280   1.284       .  A
C280        C567   1.504       .  S
O281        C286   1.270       .  A
O282        C284   1.281       .  A
C283        O285   1.276       .  A
C283        C427   1.460       .  S
C284        C384   1.501       .  S
C286        C517   1.531       .  S
Fe287       O303   2.158       .  S
Fe287       O293   2.067       .  S
Fe287       O300   2.069       .  S
Fe287       O292   2.134       .  S
Fe287       O298   1.927       .  S
Fe288       O291   2.117       .  S
Fe288       O295   2.022       .  S
Fe288       O299   2.123       .  S
Fe288       O304   2.005       .  S
Fe288       O298   1.919       .  S
Fe289       O307   2.031       .  S
Fe289       O294   2.139       .  S
Fe289       O301   2.100       .  S
Fe289       O290   2.022       .  S
Fe289       O298   1.921       .  S
O290        C297   1.264       .  A
O291        C305   1.272       .  A
O292        C297   1.286       .  A
O293        C296   1.272       .  A
O294        C306   1.284       .  A
O295        C308   1.260       .  A
C296        O301   1.278       .  A
C296        C407   1.490       .  S
C297        C374   1.479       .  S
O299        C302   1.279       .  A
O300        C302   1.269       .  A
C302        C497   1.511       .  S
O303        C308   1.289       .  A
O304        C306   1.259       .  A
C305        O307   1.253       .  A
C305        C364   1.489       .  S
C306        C454   1.474       .  S
C308        C557   1.502       .  S
Fe309       O325   2.079       .  S
Fe309       O315   2.100       .  S
Fe309       O322   2.108       .  S
Fe309       O314   2.067       .  S
Fe309       O320   1.977       .  S
Fe310       O313   1.991       .  S
Fe310       O317   2.096       .  S
Fe310       O321   2.029       .  S
Fe310      O1158   2.104   1_554  S
Fe310       O320   1.973       .  S
Fe311       O329   2.082       .  S
Fe311       O323   2.026       .  S
Fe311       O312   2.071       .  S
Fe311      O1148   2.022   1_554  S
Fe311       O320   1.979       .  S
O312        C319   1.272       .  A
O313        C327   1.255       .  A
O314        C319   1.271       .  A
O315        C318   1.274       .  A
O316      Fe1143   2.025       .  S
O316        C328   1.261       .  A
O317        C330   1.274       .  A
C318        O323   1.257       .  A
C318        C367   1.497       .  S
C319        C357   1.471       .  S
O321        C324   1.261       .  A
O322        C324   1.275       .  A
C324        C617   1.494       .  S
O325        C330   1.270       .  A
O326      Fe1142   2.097       .  S
O326        C328   1.276       .  A
C327        O329   1.272       .  A
C327        C484   1.454       .  S
C328        C377   1.479       .  S
C330        C444   1.515       .  S
Fe331       O347   2.135       .  S
Fe331       O337   2.057       .  S
Fe331       O344   2.076       .  S
Fe331       O336   2.128       .  S
Fe331       O342   1.915       .  S
Fe332       O339   2.030       .  S
Fe332       O343   2.125       .  S
Fe332       O348   2.005       .  S
Fe332      O1167   2.137   1_554  S
Fe332       O342   1.942       .  S
Fe333       O338   2.100       .  S
Fe333       O345   2.089       .  S
Fe333       O334   2.037       .  S
Fe333      O1183   2.028   1_554  S
Fe333       O342   1.924       .  S
O334        C341   1.259       .  A
O335      Fe1164   2.140       .  S
O335        C349   1.280       .  A
O336        C341   1.283       .  A
O337        C340   1.270       .  A
O338        C350   1.274       .  A
O339        C352   1.264       .  A
C340        O345   1.275       .  A
C340        C354   1.476       .  S
C341        C387   1.519       .  S
O343        C346   1.281       .  A
O344        C346   1.268       .  A
C346        C414   1.532       .  S
O347        C352   1.288       .  A
O348        C350   1.258       .  A
C349        O351   1.258       .  A
C349        C397   1.497       .  S
C350        C507   1.447       .  S
O351      Fe1165   2.036       .  S
C352        C587   1.507       .  S
C353        C354   1.412       .  A
C353        C358   1.409   1_655  A
C353       Br360   1.928       .  S
C354        C355   1.410       .  A
C355        C356   1.407   1_655  A
C355       Br362   1.931       .  S
C356        C357   1.408       .  A
C356       Br361   1.930       .  S
C357        C358   1.407       .  A
C358       Br359   1.930       .  S
C363        C364   1.407       .  A
C363        C368   1.410       .  A
C363       Br370   1.935       .  S
C364        C365   1.422       .  A
C365        C366   1.410       .  A
C365       Br372   1.938       .  S
C366        C367   1.412       .  A
C366       Br371   1.936       .  S
C367        C368   1.426       .  A
C368       Br369   1.936       .  S
C373        C374   1.411       .  A
C373        C378   1.410       .  A
C373       Br380   1.932       .  S
C374        C375   1.409       .  A
C375        C376   1.410       .  A
C375       Br382   1.927       .  S
C376        C377   1.413       .  A
C376       Br381   1.931       .  S
C377        C378   1.412       .  A
C378       Br379   1.930       .  S
C383        C384   1.406       .  A
C383        C388   1.417       .  A
C383       Br390   1.933       .  S
C384        C385   1.422       .  A
C385        C386   1.413       .  A
C385       Br392   1.940       .  S
C386        C387   1.419       .  A
C386       Br391   1.939       .  S
C387        C388   1.435       .  A
C388       Br389   1.939       .  S
C393        C394   1.437       .  A
C393        C398   1.418       .  A
C393       Br400   1.940       .  S
C394        C395   1.422       .  A
C395        C396   1.413       .  A
C395       Br402   1.940       .  S
C396        C397   1.419       .  A
C396       Br401   1.939       .  S
C397        C398   1.404       .  A
C398       Br399   1.934       .  S
C403        C404   1.412       .  A
C403        C408   1.411   1_655  A
C403       Br410   1.930       .  S
C404        C405   1.414       .  A
C405        C406   1.414   1_655  A
C405       Br412   1.932       .  S
C406        C407   1.414       .  A
C406       Br411   1.931       .  S
C407        C408   1.412       .  A
C408       Br409   1.930       .  S
C413        C414   1.424       .  A
C413        C418   1.423       .  A
C413       Br420   1.937       .  S
C414        C415   1.429       .  A
C415        C416   1.424       .  A
C415       Br422   1.938       .  S
C416        C417   1.420       .  A
C416       Br421   1.935       .  S
C417        C418   1.423       .  A
C418       Br419   1.937       .  S
C423        C424   1.401       .  A
C423        C428   1.400       .  A
C423       Br430   1.935       .  S
C424        C425   1.411       .  A
C425        C426   1.402       .  A
C425       Br432   1.922       .  S
C426        C427   1.403       .  A
C426       Br431   1.933       .  S
C427        C428   1.412       .  A
C428       Br429   1.917       .  S
C433        C434   1.414       .  A
C433        C438   1.413       .  A
C433       Br440   1.931       .  S
C434        C435   1.417       .  A
C435        C436   1.415       .  A
C435       Br442   1.932       .  S
C436        C437   1.414       .  A
C436       Br441   1.932       .  S
C437        C438   1.414       .  A
C438       Br439   1.930       .  S
C443        C444   1.423       .  A
C443        C448   1.416       .  A
C443       Br450   1.936       .  S
C444        C445   1.419       .  A
C445        C446   1.420       .  A
C445       Br452   1.930       .  S
C446        C447   1.415       .  A
C446       Br451   1.930       .  S
C447        C448   1.415       .  A
C448       Br449   1.929       .  S
C453        C454   1.420       .  A
C453        C458   1.405       .  A
C453       Br460   1.934       .  S
C454        C455   1.402       .  A
C455        C456   1.405       .  A
C455       Br462   1.931       .  S
C456        C457   1.421       .  A
C456       Br461   1.934       .  S
C457        C458   1.402       .  A
C458       Br459   1.931       .  S
C463        C464   1.419       .  A
C463        C468   1.407       .  A
C463       Br470   1.934       .  S
C464        C465   1.411       .  A
C465        C466   1.411       .  A
C465       Br472   1.936       .  S
C466        C467   1.426       .  A
C466       Br471   1.938       .  S
C467        C468   1.409       .  A
C468       Br469   1.933       .  S
C473        C474   1.411       .  A
C473        C478   1.410       .  A
C473       Br480   1.926       .  S
C474        C475   1.414       .  A
C475        C476   1.412       .  A
C475       Br482   1.930       .  S
C476        C477   1.411       .  A
C476       Br481   1.931       .  S
C477        C478   1.409       .  A
C478       Br479   1.928       .  S
C483        C488   1.398       .  A
C483       C1316   1.411       .  A
C483       Br490   1.930       .  S
C484        C485   1.405   1_554  A
C484       C1315   1.413       .  A
C485        C486   1.400       .  A
C485       Br492   1.932       .  S
C486       C1319   1.411       .  A
C486       Br491   1.930       .  S
C487        C488   1.403       .  A
C487       C1318   1.411       .  A
C488       Br489   1.931       .  S
C493        C494   1.422       .  A
C493        C498   1.413       .  A
C493       Br500   1.933       .  S
C494        C495   1.420       .  A
C495        C496   1.422       .  A
C495       Br502   1.933       .  S
C496        C497   1.418       .  A
C496       Br501   1.932       .  S
C497        C498   1.414       .  A
C498       Br499   1.929       .  S
C503        C508   1.397       .  A
C503       C1336   1.412   1_554  A
C503       Br510   1.928       .  S
C504        C505   1.402       .  A
C504       C1335   1.413       .  A
C505        C506   1.398       .  A
C505       Br512   1.933       .  S
C506       C1339   1.415       .  A
C506       Br511   1.934       .  S
C507        C508   1.399       .  A
C507       C1338   1.413   1_554  A
C508       Br509   1.932       .  S
C513        C514   1.424       .  A
C513        C518   1.423       .  A
C513       Br520   1.936       .  S
C514        C515   1.423       .  A
C515        C516   1.423       .  A
C515       Br522   1.935       .  S
C516        C517   1.423       .  A
C516       Br521   1.934       .  S
C517        C518   1.423       .  A
C518       Br519   1.937       .  S
C523        C524   1.415       .  A
C523        C528   1.408       .  A
C523       Br530   1.935       .  S
C524        C525   1.431       .  A
C525        C526   1.416       .  A
C525       Br532   1.936       .  S
C526        C527   1.405       .  A
C526       Br531   1.932       .  S
C527        C528   1.420       .  A
C528       Br529   1.937       .  S
C533        C534   1.421       .  A
C533        C538   1.410       .  A
C533       Br540   1.940       .  S
C534        C535   1.405       .  A
C535        C536   1.414       .  A
C535       Br542   1.931       .  S
C536        C537   1.430       .  A
C536       Br541   1.939       .  S
C537        C538   1.419       .  A
C538       Br539   1.941       .  S
C543        C544   1.410       .  A
C543        C548   1.407       .  A
C543       Br550   1.929       .  S
C544        C545   1.406       .  A
C545        C546   1.405       .  A
C545       Br552   1.931       .  S
C546        C547   1.409       .  A
C546       Br551   1.928       .  S
C547        C548   1.407       .  A
C548       Br549   1.929       .  S
C553        C554   1.416       .  A
C553        C558   1.416       .  A
C553       Br560   1.929       .  S
C554        C555   1.405       .  A
C555        C556   1.407       .  A
C555       Br562   1.937       .  S
C556        C557   1.427       .  A
C556       Br561   1.942       .  S
C557        C558   1.415       .  A
C558       Br559   1.929       .  S
C563        C564   1.417       .  A
C563        C568   1.412       .  A
C563       Br570   1.935       .  S
C564        C565   1.409       .  A
C565        C566   1.412       .  A
C565       Br572   1.929       .  S
C566        C567   1.422       .  A
C566       Br571   1.932       .  S
C567        C568   1.415       .  A
C568       Br569   1.930       .  S
C573        C574   1.410       .  A
C573        C578   1.412   1_655  A
C573       Br580   1.933       .  S
C574        C575   1.411       .  A
C575        C576   1.412   1_655  A
C575       Br582   1.932       .  S
C576        C577   1.413       .  A
C576       Br581   1.926       .  S
C577        C578   1.417       .  A
C578       Br579   1.933       .  S
C583        C584   1.417       .  A
C583        C588   1.419   1_565  A
C583       Br590   1.933       .  S
C584       C1417   1.430       .  A
C585        C586   1.414   1_565  A
C585       C1416   1.431   1_554  A
C585       Br592   1.939       .  S
C586        C587   1.411       .  A
C586       Br591   1.936       .  S
C587       C1420   1.424   1_554  A
C588       C1419   1.423       .  A
C588       Br589   1.935       .  S
C593        C594   1.414       .  A
C593        C598   1.412       .  A
C593       Br600   1.931       .  S
C594        C595   1.408       .  A
C595        C596   1.410       .  A
C595       Br602   1.926       .  S
C596        C597   1.415       .  A
C596       Br601   1.932       .  S
C597        C598   1.413       .  A
C598       Br599   1.932       .  S
C603        C604   1.428       .  A
C603        C608   1.410       .  A
C603       Br610   1.940       .  S
C604        C605   1.411       .  A
C605        C606   1.408       .  A
C605       Br612   1.936       .  S
C606        C607   1.422       .  A
C606       Br611   1.937       .  S
C607        C608   1.409       .  A
C608       Br609   1.937       .  S
C613        C614   1.418       .  A
C613        C618   1.412   1_565  A
C613       Br620   1.933       .  S
C614       C1447   1.427       .  A
C615        C616   1.413   1_565  A
C615       C1446   1.426   1_554  A
C615       Br622   1.938       .  S
C616        C617   1.409       .  A
C616       Br621   1.932       .  S
C617       C1450   1.417   1_554  A
C618       C1449   1.415       .  A
C618       Br619   1.935       .  S
C623        C624   1.408       .  A
C623        C628   1.412       .  A
C623       Br630   1.931       .  S
C624        C625   1.405       .  A
C625        C626   1.409       .  A
C625       Br632   1.929       .  S
C626        C627   1.422       .  A
C626       Br631   1.935       .  S
C627        C628   1.423       .  A
C628       Br629   1.936       .  S
C633        C634   1.413       .  A
C633        C638   1.411       .  A
C633       Br640   1.935       .  S
C634        C635   1.427       .  A
C635        C636   1.409       .  A
C635       Br642   1.941       .  S
C636        C637   1.412       .  A
C636       Br641   1.939       .  S
C637        C638   1.421       .  A
C638       Br639   1.937       .  S
C643        C644   1.414       .  A
C643        C648   1.407   1_455  A
C643       Br650   1.935       .  S
C644        C645   1.408       .  A
C645        C646   1.404   1_455  A
C645       Br652   1.932       .  S
C646        C647   1.411       .  A
C646       Br651   1.929       .  S
C647        C648   1.410       .  A
C648       Br649   1.931       .  S
C653        C654   1.409       .  A
C653        C658   1.409       .  A
C653       Br660   1.933       .  S
C654       C1487   1.416       .  A
C655        C656   1.413       .  A
C655       C1486   1.416   1_554  A
C655       Br662   1.933       .  S
C656        C657   1.413       .  A
C656       Br661   1.931       .  S
C657       C1490   1.419   1_554  A
C658       C1489   1.418       .  A
C658       Br659   1.934       .  S
C663        C664   1.416       .  A
C663       C1500   1.396       .  A
C663       Br670   1.934       .  S
C664        C665   1.415       .  A
C665       C1498   1.402       .  A
C665       Br672   1.927       .  S
C666        C667   1.407       .  A
C666       C1497   1.404       .  A
C666       Br671   1.935       .  S
C667        C668   1.402   1_554  A
C668       C1495   1.398       .  A
C668       Br669   1.934       .  S
C673        C674   1.424       .  A
C673        C678   1.424       .  A
C673       Br680   1.939       .  S
C674        C675   1.420       .  A
C675        C676   1.421       .  A
C675       Br682   1.935       .  S
C676        C677   1.422       .  A
C676       Br681   1.935       .  S
C677        C678   1.426       .  A
C678       Br679   1.938       .  S
C683        C688   1.413       .  A
C683       C1516   1.424   1_554  A
C683       Br690   1.933       .  S
C684        C685   1.417       .  A
C684       C1515   1.424       .  A
C685        C686   1.413       .  A
C685       Br692   1.934       .  S
C686       C1519   1.419       .  A
C686       Br691   1.936       .  S
C687        C688   1.409       .  A
C687       C1518   1.419   1_554  A
C688       Br689   1.931       .  S
C693        C694   1.417       .  A
C693       C1530   1.403       .  A
C693       Br700   1.936       .  S
C694        C695   1.413       .  A
C695       C1528   1.403       .  A
C695       Br702   1.940       .  S
C696        C697   1.420       .  A
C696       C1527   1.403   1_554  A
C696       Br701   1.934       .  S
C697        C698   1.407   1_554  A
C698       C1525   1.401       .  A
C698       Br699   1.934       .  S
C703        C704   1.407       .  A
C703        C708   1.406       .  A
C703       Br710   1.934       .  S
C704        C705   1.412       .  A
C705        C706   1.424       .  A
C705       Br712   1.924       .  S
C706        C707   1.415       .  A
C706       Br711   1.923       .  S
C707        C708   1.413       .  A
C708       Br709   1.928       .  S
C713        C714   1.412       .  A
C713        C718   1.411       .  A
C713      Br1552   1.931       .  S
C714        C715   1.411       .  A
C715        C716   1.411       .  A
C715       Br722   1.931       .  S
C716        C717   1.413       .  A
C716       Br721   1.931       .  S
C717        C718   1.411       .  A
C718      Br1551   1.930       .  S
Br719      C1550   1.930       .  S
Br720      C1545   1.931       .  S
C723        C724   1.411       .  A
C723        C728   1.416   1_565  A
C723       Br730   1.928       .  S
C724        C725   1.423       .  A
C725        C726   1.405   1_565  A
C725       Br732   1.942       .  S
C726        C727   1.406       .  A
C726       Br731   1.934       .  S
C727        C728   1.414       .  A
C728       Br729   1.928       .  S
C733        C734   1.413       .  A
C733        C738   1.401       .  A
C733       Br740   1.926       .  S
C734        C735   1.405       .  A
C735        C736   1.401       .  A
C735       Br742   1.934       .  S
C736        C737   1.418       .  A
C736       Br741   1.936       .  S
C737        C738   1.413       .  A
C738       Br739   1.935       .  S
C743        C744   1.421       .  A
C743        C748   1.417       .  A
C743       Br750   1.940       .  S
C744        C745   1.422       .  A
C745        C746   1.418       .  A
C745       Br752   1.936       .  S
C746        C747   1.420       .  A
C746       Br751   1.938       .  S
C747        C748   1.424       .  A
C748       Br749   1.939       .  S
C753        C754   1.409       .  A
C753        C758   1.409       .  A
C753       Br760   1.927       .  S
C754        C755   1.413       .  A
C755        C756   1.409       .  A
C755       Br762   1.932       .  S
C756        C757   1.410       .  A
C756       Br761   1.931       .  S
C757        C758   1.412       .  A
C758       Br759   1.931       .  S
C763        C764   1.413       .  A
C763        C768   1.411       .  A
C763       Br770   1.937       .  S
C764        C765   1.426       .  A
C765        C766   1.410       .  A
C765       Br772   1.940       .  S
C766        C767   1.412       .  A
C766       Br771   1.939       .  S
C767        C768   1.421       .  A
C768       Br769   1.936       .  S
C773        C774   1.415       .  A
C773        C778   1.405   1_545  A
C773       Br780   1.938       .  S
C774        C775   1.413       .  A
C775        C776   1.421   1_545  A
C775       Br782   1.926       .  S
C776        C777   1.414       .  A
C776       Br781   1.927       .  S
C777        C778   1.410       .  A
C778       Br779   1.925       .  S
C783        C784   1.408       .  A
C783        C788   1.411       .  A
C783       Br790   1.927       .  S
C784        C785   1.413       .  A
C785        C786   1.410       .  A
C785       Br792   1.925       .  S
C786        C787   1.411       .  A
C786       Br791   1.932       .  S
C787        C788   1.416       .  A
C788       Br789   1.932       .  S
C793        C794   1.432       .  A
C793        C798   1.409       .  A
C793       Br800   1.939       .  S
C794        C795   1.413       .  A
C795        C796   1.408       .  A
C795       Br802   1.935       .  S
C796        C797   1.417       .  A
C796       Br801   1.934       .  S
C797        C798   1.405       .  A
C798       Br799   1.937       .  S
C803        C804   1.411       .  A
C803        C808   1.407       .  A
C803       Br810   1.932       .  S
C804        C805   1.409       .  A
C805        C806   1.404       .  A
C805       Br812   1.928       .  S
C806        C807   1.409       .  A
C806       Br811   1.930       .  S
C807        C808   1.414       .  A
C808       Br809   1.933       .  S
C813        C814   1.406       .  A
C813        C818   1.400       .  A
C813       Br820   1.932       .  S
C814        C815   1.408       .  A
C815        C816   1.401       .  A
C815       Br822   1.934       .  S
C816        C817   1.412       .  A
C816       Br821   1.926       .  S
C817        C818   1.419       .  A
C818       Br819   1.936       .  S
C823        C824   1.422       .  A
C823        C828   1.414       .  A
C823       Br830   1.937       .  S
C824        C825   1.427       .  A
C825        C826   1.417       .  A
C825       Br832   1.940       .  S
C826        C827   1.417       .  A
C826       Br831   1.938       .  S
C827        C828   1.418       .  A
C828       Br829   1.938       .  S
Fe833       O849   2.052       .  S
Fe833       O839   2.131       .  S
Fe833       O846   2.146       .  S
Fe833       O838   2.052       .  S
Fe833       O844   1.914       .  S
Fe834       O837   1.996       .  S
Fe834       O841   2.106       .  S
Fe834       O845   2.034       .  S
Fe834       O850   2.119       .  S
Fe834       O844   1.930       .  S
Fe835       O853   2.126       .  S
Fe835       O840   2.027       .  S
Fe835       O847   2.019       .  S
Fe835       O836   2.085       .  S
Fe835       O844   1.917       .  S
O836        C843   1.274       .  A
O837        C851   1.260       .  A
O838        C843   1.268       .  A
O839        C842   1.285       .  A
O840        C852   1.249       .  A
O841        C854   1.274       .  A
C842        O847   1.262       .  A
C842       C1616   1.479       .  S
C843       C1636   1.476       .  S
O845        C848   1.267       .  A
O846        C848   1.288       .  A
C848       C1609   1.484       .  S
O849        C854   1.263       .  A
O850        C852   1.274       .  A
C851        O853   1.283       .  A
C851       C1649   1.476       .  S
C852       C1626   1.493       .  S
C854       C1656   1.511       .  S
Fe855       O871   2.153       .  S
Fe855       O861   2.047       .  S
Fe855       O868   2.056       .  S
Fe855       O860   2.133       .  S
Fe855       O866   1.917       .  S
Fe856       O859   2.110       .  S
Fe856       O863   2.013       .  S
Fe856       O867   2.121       .  S
Fe856       O872   1.991       .  S
Fe856       O866   1.921       .  S
Fe857       O875   2.040       .  S
Fe857       O862   2.116       .  S
Fe857       O869   2.087       .  S
Fe857       O858   2.012       .  S
Fe857       O866   1.911       .  S
O858        C865   1.260       .  A
O859        C873   1.270       .  A
O860        C865   1.285       .  A
O861        C864   1.268       .  A
O862        C874   1.284       .  A
O863        C876   1.261       .  A
C864        O869   1.276       .  A
C864       C1639   1.477       .  S
C865       C1586   1.477       .  S
O867        C870   1.269       .  A
O868        C870   1.270       .  A
C870       C1576   1.517       .  S
O871        C876   1.290       .  A
O872        C874   1.263       .  A
C873        O875   1.252       .  A
C873       C1596   1.498       .  S
C874       C1569   1.476       .  S
C876       C1556   1.489       .  S
Fe877       O893   2.082       .  S
Fe877       O883   2.095       .  S
Fe877       O890   2.109       .  S
Fe877       O882   2.067       .  S
Fe877       O888   1.981       .  S
Fe878       O881   2.001       .  S
Fe878       O885   2.091       .  S
Fe878       O889   2.025       .  S
Fe878       O888   1.977       .  S
Fe879       O897   2.099       .  S
Fe879       O891   2.035       .  S
Fe879       O880   2.091       .  S
Fe879       O888   1.977       .  S
O880        C887   1.276       .  A
O881        C895   1.254       .  A
O882        C887   1.272       .  A
O883        C886   1.274       .  A
O884        C896   1.260       .  A
O885        C898   1.276       .  A
C886        O891   1.259       .  A
C886       C1599   1.496       .  S
C887       C1546   1.486       .  S
O889        C892   1.258       .  A
O890        C892   1.274       .  A
C892       C1519   1.496       .  S
O893        C898   1.271       .  A
O894        C896   1.277       .  A
C895        O897   1.276       .  A
C895       C1529   1.473       .  S
C896       C1589   1.474       .  S
C898       C1536   1.492       .  S
Fe899       O915   2.092       .  S
Fe899       O905   2.092       .  S
Fe899       O912   2.097       .  S
Fe899       O904   2.090       .  S
Fe899       O910   1.975       .  S
Fe900       O907   2.045       .  S
Fe900       O911   2.091       .  S
Fe900       O916   2.009       .  S
Fe900       O910   1.973       .  S
Fe901       O906   2.062       .  S
Fe901       O913   2.062       .  S
Fe901       O902   2.022       .  S
Fe901       O910   1.976       .  S
O902        C909   1.257       .  A
O903        C917   1.276       .  A
O904        C909   1.272       .  A
O905        C908   1.275       .  A
O906        C918   1.268       .  A
O907        C920   1.264       .  A
C908        O913   1.269       .  A
C908       C1549   1.485       .  S
C909       C1629   1.480       .  S
O911        C914   1.272       .  A
O912        C914   1.274       .  A
C914       C1509   1.529       .  S
O915        C920   1.273       .  A
O916        C918   1.258       .  A
C917        O919   1.259       .  A
C917       C1619   1.479       .  S
C918       C1499   1.449       .  S
C920       C1489   1.492       .  S
Fe921       O937   2.051       .  S
Fe921       O927   2.123       .  S
Fe921       O934   2.132       .  S
Fe921       O926   2.033       .  S
Fe921       O932   1.915       .  S
Fe922       O925   2.003       .  S
Fe922       O929   2.108       .  S
Fe922       O933   2.025       .  S
Fe922       O932   1.946       .  S
Fe923       O941   2.117       .  S
Fe923       O935   2.031       .  S
Fe923       O924   2.087       .  S
Fe923       O932   1.922       .  S
O924        C931   1.274       .  A
O925        C939   1.265       .  A
O926        C931   1.262       .  A
O927        C930   1.283       .  A
O928        C940   1.252       .  A
O929        C942   1.273       .  A
C930        O935   1.264       .  A
C930       C1456   1.480       .  S
C931       C1476   1.472       .  S
O933        C936   1.268       .  A
O934        C936   1.288       .  A
C936       C1446   1.504       .  S
O937        C942   1.263       .  A
O938        C940   1.273       .  A
C939        O941   1.282       .  A
C939       C1496   1.476       .  S
C940       C1466   1.498       .  S
C942       C1659   1.507       .  S
Fe943       O959   2.150       .  S
Fe943       O949   2.058       .  S
Fe943       O956   2.068       .  S
Fe943       O948   2.137       .  S
Fe943       O954   1.920       .  S
Fe944       O951   2.022       .  S
Fe944       O955   2.100       .  S
Fe944       O960   2.005       .  S
Fe944       O954   1.943       .  S
Fe945       O950   2.102       .  S
Fe945       O957   2.071       .  S
Fe945       O946   2.018       .  S
Fe945       O954   1.924       .  S
O946        C953   1.261       .  A
O947        C961   1.272       .  A
O948        C953   1.286       .  A
O949        C952   1.268       .  A
O950        C962   1.279       .  A
O951        C964   1.264       .  A
C952        O957   1.271       .  A
C952       C1479   1.474       .  S
C953       C1426   1.483       .  S
O955        C958   1.263       .  A
O956        C958   1.272       .  A
C958       C1579   1.515       .  S
O959        C964   1.295       .  A
O960        C962   1.264       .  A
C961        O963   1.250       .  A
C961       C1436   1.494       .  S
C962       C1526   1.479       .  S
C964       C1416   1.516       .  S
Fe965       O981   2.077       .  S
Fe965       O971   2.097       .  S
Fe965       O978   2.114       .  S
Fe965       O970   2.069       .  S
Fe965       O976   1.980       .  S
Fe966       O969   2.000       .  S
Fe966       O973   2.098       .  S
Fe966       O977   2.024       .  S
Fe966       O982   2.104       .  S
Fe966       O976   1.977       .  S
Fe967       O985   2.089       .  S
Fe967       O972   2.011       .  S
Fe967       O979   2.016       .  S
Fe967       O968   2.083       .  S
Fe967       O976   1.974       .  S
O968        C975   1.276       .  A
O969        C983   1.257       .  A
O970        C975   1.273       .  A
O971        C974   1.273       .  A
O972        C984   1.257       .  A
O973        C986   1.275       .  A
C974        O979   1.254       .  A
C974       C1439   1.489       .  S
C975       C1406   1.483       .  S
O977        C980   1.260       .  A
O978        C980   1.275       .  A
C980       C1396   1.499       .  S
O981        C986   1.271       .  A
O982        C984   1.276       .  A
C983        O985   1.275       .  A
C983       C1566   1.463       .  S
C984       C1429   1.482       .  S
C986       C1539   1.496       .  S
Fe987      O1003   2.125       .  S
Fe987       O993   2.087       .  S
Fe987      O1000   2.083       .  S
Fe987       O992   2.091       .  S
Fe987       O998   1.945       .  S
Fe988       O991   2.090       .  S
Fe988       O995   2.035       .  S
Fe988       O999   2.107       .  S
Fe988      O1004   2.016       .  S
Fe988       O998   1.953       .  S
Fe989      O1007   2.041       .  S
Fe989       O994   2.085       .  S
Fe989      O1001   2.071       .  S
Fe989       O990   2.035       .  S
Fe989       O998   1.955       .  S
O990        C997   1.262       .  A
O991       C1005   1.269       .  A
O992        C997   1.275       .  A
O993        C996   1.277       .  A
O994       C1006   1.275       .  A
O995       C1008   1.265       .  A
C996       O1001   1.272       .  A
C996       C1409   1.491       .  S
C997       C1469   1.492       .  S
O999       C1002   1.271       .  A
O1000      C1002   1.269       .  A
C1002      C1506   1.526       .  S
O1003      C1008   1.284       .  A
O1004      C1006   1.265       .  A
C1005      O1007   1.262       .  A
C1005      C1459   1.500       .  S
C1006      C1646   1.463       .  S
C1008      C1386   1.483       .  S
Fe1009     O1025   2.072       .  S
Fe1009     O1015   2.120       .  S
Fe1009     O1022   2.124       .  S
Fe1009     O1014   2.051       .  S
Fe1009     O1020   1.916       .  S
Fe1010     O1013   2.007       .  S
Fe1010     O1017   2.131       .  S
Fe1010     O1021   2.034       .  S
Fe1010     O1020   1.941       .  S
Fe1011     O1029   2.095       .  S
Fe1011     O1023   2.045       .  S
Fe1011     O1012   2.090       .  S
Fe1011     O1020   1.924       .  S
O1012      C1019   1.274       .  A
O1013      C1027   1.260       .  A
O1014      C1019   1.268       .  A
O1015      C1018   1.281       .  A
O1016      C1028   1.258       .  A
O1017      C1030   1.282       .  A
C1018      O1023   1.261       .  A
C1018      C1356   1.518       .  S
C1019      C1376   1.472       .  S
O1021      C1024   1.266       .  A
O1022      C1024   1.282       .  A
C1024      C1516   1.505       .  S
O1025      C1030   1.270       .  A
O1026      C1028   1.279       .  A
C1027      O1029   1.275       .  A
C1027      C1336   1.447       .  S
C1028      C1366   1.490       .  S
C1030      C1346   1.528       .  S
Fe1031     O1047   2.096       .  S
Fe1031     O1037   2.073       .  S
Fe1031     O1044   2.083       .  S
Fe1031     O1036   2.088       .  S
Fe1031     O1042   1.974       .  S
Fe1032     O1039   2.047       .  S
Fe1032     O1043   2.089       .  S
Fe1032     O1048   2.001       .  S
Fe1032     O1042   1.974       .  S
Fe1033     O1038   2.075       .  S
Fe1033     O1045   2.071       .  S
Fe1033     O1034   2.039       .  S
Fe1033     O1042   1.975       .  S
O1034      C1041   1.259       .  A
O1035      C1049   1.275       .  A
O1036      C1041   1.271       .  A
O1037      C1040   1.272       .  A
O1038      C1050   1.271       .  A
O1039      C1052   1.265       .  A
C1040      O1045   1.273       .  A
C1040      C1379   1.473       .  S
C1041      C1296   1.493       .  S
O1043      C1046   1.272       .  A
O1044      C1046   1.271       .  A
C1046      C1326   1.517       .  S
O1047      C1052   1.275       .  A
O1048      C1050   1.257       .  A
C1049      O1051   1.260       .  A
C1049      C1306   1.478       .  S
C1050      C1319   1.452       .  S
C1052      C1486   1.490       .  S
Fe1053     O1069   2.077       .  S
Fe1053     O1059   2.126       .  S
Fe1053     O1066   2.142       .  S
Fe1053     O1058   2.066       .  S
Fe1053     O1064   1.926       .  S
Fe1054     O1057   2.007       .  S
Fe1054     O1061   2.115       .  S
Fe1054     O1065   2.028       .  S
Fe1054     O1070   2.121       .  S
Fe1054     O1064   1.925       .  S
Fe1055     O1073   2.133       .  S
Fe1055     O1060   2.035       .  S
Fe1055     O1067   2.023       .  S
Fe1055     O1056   2.101       .  S
Fe1055     O1064   1.925       .  S
O1056      C1063   1.277       .  A
O1057      C1071   1.258       .  A
O1058      C1063   1.271       .  A
O1059      C1062   1.285       .  A
O1060      C1072   1.255       .  A
O1061      C1074   1.276       .  A
C1062      O1067   1.264       .  A
C1062      C1309   1.476       .  S
C1063      C1266   1.496       .  S
O1065      C1068   1.266       .  A
O1066      C1068   1.287       .  A
C1068      C1606   1.485       .  S
O1069      C1074   1.270       .  A
O1070      C1072   1.274       .  A
C1071      O1073   1.282       .  A
C1071      C1289   1.472       .  S
C1072      C1299   1.493       .  S
C1074      C1279   1.510       .  S
Fe1075     O1091   2.115       .  S
Fe1075     O1081   2.070       .  S
Fe1075     O1088   2.075       .  S
Fe1075     O1080   2.111       .  S
Fe1075     O1086   1.924       .  S
Fe1076     O1079   2.128       .  S
Fe1076     O1083   2.042       .  S
Fe1076     O1087   2.124       .  S
Fe1076     O1092   2.023       .  S
Fe1076     O1086   1.936       .  S
Fe1077     O1095   2.038       .  S
Fe1077     O1082   2.100       .  S
Fe1077     O1089   2.101       .  S
Fe1077     O1078   2.039       .  S
Fe1077     O1086   1.915       .  S
O1078      C1085   1.264       .  A
O1079      C1093   1.279       .  A
O1080      C1085   1.274       .  A
O1081      C1084   1.274       .  A
O1082      C1094   1.275       .  A
O1083      C1096   1.266       .  A
C1084      O1089   1.277       .  A
C1084      C1269   1.495       .  S
C1085      C1369   1.507       .  S
O1087      C1090   1.281       .  A
O1088      C1090   1.271       .  A
C1090      C1249   1.525       .  S
O1091      C1096   1.280       .  A
O1092      C1094   1.262       .  A
C1093      O1095   1.259       .  A
C1093      C1359   1.495       .  S
C1094      C1256   1.462       .  S
C1096      C1559   1.479       .  S
Fe1097     O1113   2.075       .  S
Fe1097     O1103   2.121       .  S
Fe1097     O1110   2.122       .  S
Fe1097     O1102   2.055       .  S
Fe1097     O1108   1.926       .  S
Fe1098     O1101   2.020       .  S
Fe1098     O1105   2.133       .  S
Fe1098     O1109   2.047       .  S
Fe1098     O1114   2.152       .  S
Fe1098     O1108   1.942       .  S
Fe1099     O1117   2.107       .  S
Fe1099     O1104   2.033       .  S
Fe1099     O1111   2.030       .  S
Fe1099     O1100   2.118       .  S
Fe1099     O1108   1.919       .  S
O1100      C1107   1.281       .  A
O1101      C1115   1.260       .  A
O1102      C1107   1.269       .  A
O1103      C1106   1.279       .  A
O1104      C1116   1.259       .  A
O1105      C1118   1.283       .  A
C1106      O1111   1.258       .  A
C1106      C1226   1.508       .  S
C1107      C1236   1.497       .  S
O1109      C1112   1.270       .  A
O1110      C1112   1.283       .  A
C1112      C1399   1.505       .  S
O1113      C1118   1.269       .  A
O1114      C1116   1.283       .  A
C1115      O1117   1.276       .  A
C1115      C1259   1.462       .  S
C1116      C1216   1.501       .  S
C1118      C1349   1.532       .  S
Fe1119     O1135   2.153       .  S
Fe1119     O1125   2.076       .  S
Fe1119     O1132   2.076       .  S
Fe1119     O1124   2.130       .  S
Fe1119     O1130   1.924       .  S
Fe1120     O1123   2.117       .  S
Fe1120     O1127   2.023       .  S
Fe1120     O1131   2.123       .  S
Fe1120     O1136   2.005       .  S
Fe1120     O1130   1.919       .  S
Fe1121     O1139   2.033       .  S
Fe1121     O1126   2.134       .  S
Fe1121     O1133   2.099       .  S
Fe1121     O1122   2.026       .  S
Fe1121     O1130   1.923       .  S
O1122      C1129   1.265       .  A
O1123      C1137   1.272       .  A
O1124      C1129   1.286       .  A
O1125      C1128   1.274       .  A
O1126      C1138   1.283       .  A
O1127      C1140   1.261       .  A
C1128      O1133   1.277       .  A
C1128      C1239   1.498       .  S
C1129      C1206   1.479       .  S
O1131      C1134   1.278       .  A
O1132      C1134   1.270       .  A
C1134      C1329   1.515       .  S
O1135      C1140   1.288       .  A
O1136      C1138   1.259       .  A
C1137      O1139   1.254       .  A
C1137      C1196   1.491       .  S
C1138      C1286   1.471       .  S
C1140      C1389   1.499       .  S
Fe1141     O1157   2.081       .  S
Fe1141     O1147   2.095       .  S
Fe1141     O1154   2.104       .  S
Fe1141     O1146   2.074       .  S
Fe1141     O1152   1.977       .  S
Fe1142     O1145   1.997       .  S
Fe1142     O1149   2.093       .  S
Fe1142     O1153   2.033       .  S
Fe1142     O1152   1.974       .  S
Fe1143     O1161   2.078       .  S
Fe1143     O1155   2.028       .  S
Fe1143     O1144   2.069       .  S
Fe1143     O1152   1.981       .  S
O1144      C1151   1.272       .  A
O1145      C1159   1.256       .  A
O1146      C1151   1.273       .  A
O1147      C1150   1.273       .  A
O1148      C1160   1.260       .  A
O1149      C1162   1.274       .  A
C1150      O1155   1.257       .  A
C1150      C1199   1.493       .  S
C1151      C1189   1.478       .  S
O1153      C1156   1.262       .  A
O1154      C1156   1.275       .  A
C1156      C1449   1.492       .  S
O1157      C1162   1.271       .  A
O1158      C1160   1.278       .  A
C1159      O1161   1.270       .  A
C1159      C1316   1.453       .  S
C1160      C1209   1.482       .  S
C1162      C1276   1.512       .  S
Fe1163     O1179   2.141       .  S
Fe1163     O1169   2.052       .  S
Fe1163     O1176   2.075       .  S
Fe1163     O1168   2.132       .  S
Fe1163     O1174   1.918       .  S
Fe1164     O1171   2.034       .  S
Fe1164     O1175   2.116       .  S
Fe1164     O1180   2.009       .  S
Fe1164     O1174   1.942       .  S
Fe1165     O1170   2.100       .  S
Fe1165     O1177   2.095       .  S
Fe1165     O1166   2.043       .  S
Fe1165     O1174   1.925       .  S
O1166      C1173   1.262       .  A
O1167      C1181   1.280       .  A
O1168      C1173   1.284       .  A
O1169      C1172   1.270       .  A
O1170      C1182   1.276       .  A
O1171      C1184   1.267       .  A
C1172      O1177   1.276       .  A
C1172      C1186   1.486       .  S
C1173      C1219   1.515       .  S
O1175      C1178   1.277       .  A
O1176      C1178   1.269       .  A
C1178      C1246   1.521       .  S
O1179      C1184   1.290       .  A
O1180      C1182   1.258       .  A
C1181      O1183   1.256       .  A
C1181      C1229   1.492       .  S
C1182      C1339   1.453       .  S
C1184      C1419   1.508       .  S
C1185      C1186   1.416       .  A
C1185      C1190   1.409   1_655  A
C1185     Br1192   1.932       .  S
C1186      C1187   1.414       .  A
C1187      C1188   1.410   1_655  A
C1187     Br1194   1.933       .  S
C1188      C1189   1.410       .  A
C1188     Br1193   1.932       .  S
C1189      C1190   1.407       .  A
C1190     Br1191   1.932       .  S
C1195      C1196   1.409       .  A
C1195      C1200   1.410       .  A
C1195     Br1202   1.935       .  S
C1196      C1197   1.424       .  A
C1197      C1198   1.409       .  A
C1197     Br1204   1.939       .  S
C1198      C1199   1.411       .  A
C1198     Br1203   1.935       .  S
C1199      C1200   1.423       .  A
C1200     Br1201   1.935       .  S
C1205      C1206   1.412       .  A
C1205      C1210   1.411       .  A
C1205     Br1212   1.932       .  S
C1206      C1207   1.407       .  A
C1207      C1208   1.410       .  A
C1207     Br1214   1.930       .  S
C1208      C1209   1.416       .  A
C1208     Br1213   1.930       .  S
C1209      C1210   1.412       .  A
C1210     Br1211   1.930       .  S
C1215      C1216   1.406       .  A
C1215      C1220   1.419       .  A
C1215     Br1222   1.930       .  S
C1216      C1217   1.421       .  A
C1217      C1218   1.413       .  A
C1217     Br1224   1.934       .  S
C1218      C1219   1.416       .  A
C1218     Br1223   1.936       .  S
C1219      C1220   1.433       .  A
C1220     Br1221   1.937       .  S
C1225      C1226   1.434       .  A
C1225      C1230   1.414       .  A
C1225     Br1232   1.940       .  S
C1226      C1227   1.416       .  A
C1227      C1228   1.410       .  A
C1227     Br1234   1.937       .  S
C1228      C1229   1.421       .  A
C1228     Br1233   1.937       .  S
C1229      C1230   1.403       .  A
C1230     Br1231   1.932       .  S
C1235      C1236   1.413       .  A
C1235      C1240   1.414   1_655  A
C1235     Br1242   1.931       .  S
C1236      C1237   1.417       .  A
C1237      C1238   1.415   1_655  A
C1237     Br1244   1.933       .  S
C1238      C1239   1.415       .  A
C1238     Br1243   1.933       .  S
C1239      C1240   1.416       .  A
C1240     Br1241   1.930       .  S
C1245      C1246   1.421       .  A
C1245      C1250   1.421       .  A
C1245     Br1252   1.935       .  S
C1246      C1247   1.420       .  A
C1247      C1248   1.420       .  A
C1247     Br1254   1.935       .  S
C1248      C1249   1.424       .  A
C1248     Br1253   1.935       .  S
C1249      C1250   1.425       .  A
C1250     Br1251   1.937       .  S
C1255      C1256   1.403       .  A
C1255      C1260   1.401       .  A
C1255     Br1262   1.929       .  S
C1256      C1257   1.414       .  A
C1257      C1258   1.403       .  A
C1257     Br1264   1.931       .  S
C1258      C1259   1.403       .  A
C1258     Br1263   1.931       .  S
C1259      C1260   1.413       .  A
C1260     Br1261   1.931       .  S
C1265      C1266   1.415       .  A
C1265      C1270   1.412       .  A
C1265     Br1272   1.932       .  S
C1266      C1267   1.417       .  A
C1267      C1268   1.414       .  A
C1267     Br1274   1.934       .  S
C1268      C1269   1.415       .  A
C1268     Br1273   1.933       .  S
C1269      C1270   1.415       .  A
C1270     Br1271   1.932       .  S
C1275      C1276   1.421       .  A
C1275      C1280   1.413       .  A
C1275     Br1282   1.934       .  S
C1276      C1277   1.419       .  A
C1277      C1278   1.422       .  A
C1277     Br1284   1.931       .  S
C1278      C1279   1.416       .  A
C1278     Br1283   1.930       .  S
C1279      C1280   1.415       .  A
C1280     Br1281   1.927       .  S
C1285      C1286   1.420       .  A
C1285      C1290   1.404       .  A
C1285     Br1292   1.934       .  S
C1286      C1287   1.401       .  A
C1287      C1288   1.404       .  A
C1287     Br1294   1.931       .  S
C1288      C1289   1.420       .  A
C1288     Br1293   1.934       .  S
C1289      C1290   1.402       .  A
C1290     Br1291   1.931       .  S
C1295      C1296   1.420       .  A
C1295      C1300   1.410       .  A
C1295     Br1302   1.934       .  S
C1296      C1297   1.411       .  A
C1297      C1298   1.410       .  A
C1297     Br1304   1.935       .  S
C1298      C1299   1.424       .  A
C1298     Br1303   1.938       .  S
C1299      C1300   1.410       .  A
C1300     Br1301   1.933       .  S
C1305      C1306   1.413       .  A
C1305      C1310   1.408       .  A
C1305     Br1312   1.928       .  S
C1306      C1307   1.412       .  A
C1307      C1308   1.409       .  A
C1307     Br1314   1.931       .  S
C1308      C1309   1.411       .  A
C1308     Br1313   1.932       .  S
C1309      C1310   1.408       .  A
C1310     Br1311   1.930       .  S
C1315      C1320   1.399       .  A
C1315     Br1322   1.931       .  S
C1316      C1317   1.405       .  A
C1317      C1318   1.401       .  A
C1317     Br1324   1.931       .  S
C1318     Br1323   1.929       .  S
C1319      C1320   1.403   1_556  A
C1320     Br1321   1.932       .  S
C1325      C1326   1.422       .  A
C1325      C1330   1.415       .  A
C1325     Br1332   1.934       .  S
C1326      C1327   1.420       .  A
C1327      C1328   1.423       .  A
C1327     Br1334   1.932       .  S
C1328      C1329   1.419       .  A
C1328     Br1333   1.931       .  S
C1329      C1330   1.416       .  A
C1330     Br1331   1.928       .  S
C1335      C1340   1.398       .  A
C1335     Br1342   1.931       .  S
C1336      C1337   1.398       .  A
C1337      C1338   1.395       .  A
C1337     Br1344   1.932       .  S
C1338     Br1343   1.928       .  S
C1339      C1340   1.401       .  A
C1340     Br1341   1.933       .  S
C1345      C1346   1.421       .  A
C1345      C1350   1.424       .  A
C1345     Br1352   1.936       .  S
C1346      C1347   1.423       .  A
C1347      C1348   1.423       .  A
C1347     Br1354   1.936       .  S
C1348      C1349   1.423       .  A
C1348     Br1353   1.933       .  S
C1349      C1350   1.427       .  A
C1350     Br1351   1.935       .  S
C1355      C1356   1.422       .  A
C1355      C1360   1.412       .  A
C1355     Br1362   1.941       .  S
C1356      C1357   1.437       .  A
C1357      C1358   1.417       .  A
C1357     Br1364   1.938       .  S
C1358      C1359   1.404       .  A
C1358     Br1363   1.936       .  S
C1359      C1360   1.419       .  A
C1360     Br1361   1.941       .  S
C1365      C1366   1.420       .  A
C1365      C1370   1.411       .  A
C1365     Br1372   1.941       .  S
C1366      C1367   1.404       .  A
C1367      C1368   1.412       .  A
C1367     Br1374   1.931       .  S
C1368      C1369   1.430       .  A
C1368     Br1373   1.939       .  S
C1369      C1370   1.422       .  A
C1370     Br1371   1.942       .  S
C1375      C1376   1.410       .  A
C1375      C1380   1.407       .  A
C1375     Br1382   1.928       .  S
C1376      C1377   1.407       .  A
C1377      C1378   1.408       .  A
C1377     Br1384   1.931       .  S
C1378      C1379   1.411       .  A
C1378     Br1383   1.928       .  S
C1379      C1380   1.407       .  A
C1380     Br1381   1.928   1_556  S
C1385      C1386   1.415       .  A
C1385      C1390   1.416       .  A
C1385     Br1392   1.928       .  S
C1386      C1387   1.406       .  A
C1387      C1388   1.406       .  A
C1387     Br1394   1.937       .  S
C1388      C1389   1.426       .  A
C1388     Br1393   1.942       .  S
C1389      C1390   1.415       .  A
C1390     Br1391   1.929       .  S
C1395      C1396   1.418       .  A
C1395      C1400   1.411       .  A
C1395     Br1402   1.936       .  S
C1396      C1397   1.410       .  A
C1397      C1398   1.415       .  A
C1397     Br1404   1.929       .  S
C1398      C1399   1.422       .  A
C1398     Br1403   1.931       .  S
C1399      C1400   1.415       .  A
C1400     Br1401   1.931       .  S
C1405      C1406   1.409       .  A
C1405      C1410   1.411   1_655  A
C1405     Br1412   1.932       .  S
C1406      C1407   1.411       .  A
C1407      C1408   1.411   1_655  A
C1407     Br1414   1.932       .  S
C1408      C1409   1.413       .  A
C1408     Br1413   1.926       .  S
C1409      C1410   1.417       .  A
C1410     Br1411   1.933       .  S
C1415      C1416   1.417       .  A
C1415      C1420   1.416   1_565  A
C1415     Br1422   1.935       .  S
C1417      C1418   1.414   1_565  A
C1417     Br1424   1.939       .  S
C1418      C1419   1.412       .  A
C1418     Br1423   1.936       .  S
C1420     Br1421   1.935       .  S
C1425      C1426   1.414       .  A
C1425      C1430   1.411       .  A
C1425     Br1432   1.931       .  S
C1426      C1427   1.408       .  A
C1427      C1428   1.410       .  A
C1427     Br1434   1.926       .  S
C1428      C1429   1.415       .  A
C1428     Br1433   1.933       .  S
C1429      C1430   1.412       .  A
C1430     Br1431   1.932       .  S
C1435      C1436   1.428       .  A
C1435      C1440   1.410       .  A
C1435     Br1442   1.940       .  S
C1436      C1437   1.410       .  A
C1437      C1438   1.408       .  A
C1437     Br1444   1.936       .  S
C1438      C1439   1.421       .  A
C1438     Br1443   1.937       .  S
C1439      C1440   1.409       .  A
C1440     Br1441   1.938       .  S
C1445      C1446   1.416       .  A
C1445      C1450   1.411   1_565  A
C1445     Br1452   1.934       .  S
C1447      C1448   1.413   1_565  A
C1447     Br1454   1.938       .  S
C1448      C1449   1.408       .  A
C1448     Br1453   1.932       .  S
C1450     Br1451   1.935       .  S
C1455      C1456   1.409       .  A
C1455      C1460   1.412       .  A
C1455     Br1462   1.932       .  S
C1456      C1457   1.406       .  A
C1457      C1458   1.409       .  A
C1457     Br1464   1.928       .  S
C1458      C1459   1.420       .  A
C1458     Br1463   1.935       .  S
C1459      C1460   1.422       .  A
C1460     Br1461   1.935       .  S
C1465      C1466   1.414       .  A
C1465      C1470   1.411       .  A
C1465     Br1472   1.935       .  S
C1466      C1467   1.428       .  A
C1467      C1468   1.409       .  A
C1467     Br1474   1.942       .  S
C1468      C1469   1.412       .  A
C1468     Br1473   1.939       .  S
C1469      C1470   1.420       .  A
C1470     Br1471   1.937       .  S
C1475      C1476   1.414       .  A
C1475      C1480   1.406   1_455  A
C1475     Br1482   1.935       .  S
C1476      C1477   1.407       .  A
C1477      C1478   1.403   1_455  A
C1477     Br1484   1.932   1_556  S
C1478      C1479   1.411       .  A
C1478     Br1483   1.929   1_556  S
C1479      C1480   1.410       .  A
C1480     Br1481   1.932       .  S
C1485      C1486   1.410       .  A
C1485      C1490   1.412       .  A
C1485     Br1492   1.932       .  S
C1487      C1488   1.411       .  A
C1487     Br1494   1.933       .  S
C1488      C1489   1.413       .  A
C1488     Br1493   1.932       .  S
C1490     Br1491   1.934       .  S
C1495      C1496   1.417       .  A
C1495     Br1502   1.935       .  S
C1496      C1497   1.416   1_556  A
C1497     Br1504   1.928       .  S
C1498      C1499   1.406       .  A
C1498     Br1503   1.935       .  S
C1499      C1500   1.402       .  A
C1500     Br1501   1.934       .  S
C1505      C1506   1.424       .  A
C1505      C1510   1.424       .  A
C1505     Br1512   1.939       .  S
C1506      C1507   1.421       .  A
C1507      C1508   1.422       .  A
C1507     Br1514   1.935       .  S
C1508      C1509   1.422       .  A
C1508     Br1513   1.935       .  S
C1509      C1510   1.426       .  A
C1510     Br1511   1.938       .  S
C1515      C1520   1.414       .  A
C1515     Br1522   1.932       .  S
C1516      C1517   1.415       .  A
C1517      C1518   1.411       .  A
C1517     Br1524   1.934       .  S
C1518     Br1523   1.935       .  S
C1519      C1520   1.408       .  A
C1520     Br1521   1.931       .  S
C1525      C1526   1.416       .  A
C1525     Br1532   1.935       .  S
C1526      C1527   1.413       .  A
C1527     Br1534   1.939   1_556  S
C1528      C1529   1.419       .  A
C1528     Br1533   1.932       .  S
C1529      C1530   1.408       .  A
C1530     Br1531   1.934       .  S
C1535      C1536   1.407       .  A
C1535      C1540   1.406       .  A
C1535     Br1542   1.934       .  S
C1536      C1537   1.412       .  A
C1537      C1538   1.423       .  A
C1537     Br1544   1.923       .  S
C1538      C1539   1.414       .  A
C1538     Br1543   1.923       .  S
C1539      C1540   1.413       .  A
C1540     Br1541   1.929       .  S
C1545      C1546   1.413       .  A
C1545      C1550   1.412       .  A
C1546      C1547   1.412       .  A
C1547      C1548   1.412       .  A
C1547     Br1554   1.930       .  S
C1548      C1549   1.412       .  A
C1548     Br1553   1.932       .  S
C1549      C1550   1.411       .  A
C1555      C1556   1.412       .  A
C1555      C1560   1.414   1_565  A
C1555     Br1562   1.929       .  S
C1556      C1557   1.424       .  A
C1557      C1558   1.404   1_565  A
C1557     Br1564   1.943       .  S
C1558      C1559   1.406       .  A
C1558     Br1563   1.935       .  S
C1559      C1560   1.412       .  A
C1560     Br1561   1.928       .  S
C1565      C1566   1.414       .  A
C1565      C1570   1.401       .  A
C1565     Br1572   1.925       .  S
C1566      C1567   1.405       .  A
C1567      C1568   1.401       .  A
C1567     Br1574   1.935       .  S
C1568      C1569   1.419       .  A
C1568     Br1573   1.938       .  S
C1569      C1570   1.413       .  A
C1570     Br1571   1.938       .  S
C1575      C1576   1.420       .  A
C1575      C1580   1.417       .  A
C1575     Br1582   1.941       .  S
C1576      C1577   1.425       .  A
C1577      C1578   1.418       .  A
C1577     Br1584   1.935       .  S
C1578      C1579   1.417       .  A
C1578     Br1583   1.939       .  S
C1579      C1580   1.425       .  A
C1580     Br1581   1.939       .  S
C1585      C1586   1.409       .  A
C1585      C1590   1.410       .  A
C1585     Br1592   1.928       .  S
C1586      C1587   1.413       .  A
C1587      C1588   1.409       .  A
C1587     Br1594   1.931       .  S
C1588      C1589   1.409       .  A
C1588     Br1593   1.930       .  S
C1589      C1590   1.413       .  A
C1590     Br1591   1.930       .  S
C1595      C1596   1.413       .  A
C1595      C1600   1.412       .  A
C1595     Br1602   1.937       .  S
C1596      C1597   1.426       .  A
C1597      C1598   1.411       .  A
C1597     Br1604   1.940       .  S
C1598      C1599   1.413       .  A
C1598     Br1603   1.939       .  S
C1599      C1600   1.422       .  A
C1600     Br1601   1.936       .  S
C1605      C1606   1.413       .  A
C1605      C1610   1.402   1_545  A
C1605     Br1612   1.939       .  S
C1606      C1607   1.412       .  A
C1607      C1608   1.419   1_545  A
C1607     Br1614   1.926       .  S
C1608      C1609   1.414       .  A
C1608     Br1613   1.927       .  S
C1609      C1610   1.409       .  A
C1610     Br1611   1.925       .  S
C1615      C1616   1.407       .  A
C1615      C1620   1.409       .  A
C1615     Br1622   1.927       .  S
C1616      C1617   1.412       .  A
C1617      C1618   1.409       .  A
C1617     Br1624   1.926       .  S
C1618      C1619   1.411       .  A
C1618     Br1623   1.932       .  S
C1619      C1620   1.416       .  A
C1620     Br1621   1.932       .  S
C1625      C1626   1.431       .  A
C1625      C1630   1.408       .  A
C1625     Br1632   1.939       .  S
C1626      C1627   1.412       .  A
C1627      C1628   1.406       .  A
C1627     Br1634   1.934       .  S
C1628      C1629   1.416       .  A
C1628     Br1633   1.933       .  S
C1629      C1630   1.404       .  A
C1630     Br1631   1.936       .  S
C1635      C1636   1.412       .  A
C1635      C1640   1.407       .  A
C1635     Br1642   1.933       .  S
C1636      C1637   1.410       .  A
C1637      C1638   1.405       .  A
C1637     Br1644   1.929       .  S
C1638      C1639   1.410       .  A
C1638     Br1643   1.930       .  S
C1639      C1640   1.414       .  A
C1640     Br1641   1.933       .  S
C1645      C1646   1.405       .  A
C1645      C1650   1.400       .  A
C1645     Br1652   1.933       .  S
C1646      C1647   1.407       .  A
C1647      C1648   1.401       .  A
C1647     Br1654   1.934       .  S
C1648      C1649   1.412       .  A
C1648     Br1653   1.924       .  S
C1649      C1650   1.419       .  A
C1650     Br1651   1.935       .  S
C1655      C1656   1.422       .  A
C1655      C1660   1.413       .  A
C1655     Br1662   1.938       .  S
C1656      C1657   1.426       .  A
C1657      C1658   1.416       .  A
C1657     Br1664   1.940       .  S
C1658      C1659   1.417       .  A
C1658     Br1663   1.938       .  S
C1659      C1660   1.418       .  A
C1660     Br1661   1.938       .  S
