geometry optimzed in LAMMPS
_audit_creation_date              2020-12-01 
_audit_creation_method            'lammps2cif' 
_symmetry_space_group_name_H-M    'P1' 
_symmetry_Int_Tables_number       1 
_symmetry_cell_setting            triclinic 
loop_ 
_symmetry_equiv_pos_as_xyz 
  x,y,z 
_cell_length_a                    31.28162967 
_cell_length_b                    27.300142538249496 
_cell_length_c                    65.17833458461259 
_cell_angle_alpha                 90.15642306092286 
_cell_angle_beta                  89.89998025289648 
_cell_angle_gamma                 90.09761192257967 
loop_ 
_atom_site_label 
_atom_site_type_symbol 
_atom_site_fract_x 
_atom_site_fract_y 
_atom_site_fract_z 
_atom_site_charge 
O1          O  0.88540359  0.16845625  0.47795194    -0.82300
C2          C  0.03435756  0.16389713  0.42966438     0.97100
O3          O  0.00342961  0.13427361  0.42779463    -0.71400
O4          O  0.99093405  0.09858630  0.46433037    -0.75000
Al5        Al  0.95377715  0.12593578  0.44499914     1.49000
C6          C  0.98040929  0.09454873  0.48287963     0.92400
O7          O  0.99549341  0.21743323  0.49058232    -0.81200
O8          O  0.92332157  0.26871249  0.44614331    -0.74700
Al9        Al  0.94121365  0.19235423  0.48280665     1.90100
O10         O  0.00144600  0.26924503  0.46508729    -0.73800
O11         O  0.95103769  0.21388006  0.41612588    -0.73700
O12         O  0.02830916  0.20585628  0.43726284    -0.79300
O13         O  0.91606048  0.14724895  0.42451310    -0.77500
O14         O  0.95654329  0.18455056  0.45670490    -1.13700
O15         O  0.90430753  0.10395912  0.46010760    -0.72800
C16         C  0.87851508  0.12498236  0.47222779     0.97900
C17         C  0.01103326  0.25628637  0.48317304     0.94300
Al18       Al  0.97473095  0.23533920  0.44223412     1.55600
O19         O  0.95964749  0.12837723  0.49169073    -0.77500
C20         C  0.92314668  0.18150792  0.41208619     0.98400
C21         C  0.90869577  0.28084941  0.46342821     0.93300
O22         O  0.91842527  0.25725127  0.47942019    -0.82800
O23         O  0.85520861  0.16910951  0.27095239    -0.82300
C24         C  0.71015969  0.16426910  0.32216874     0.97100
O25         O  0.74158943  0.13543940  0.32352102    -0.71400
O26         O  0.74966402  0.10026717  0.28633264    -0.75000
Al27       Al  0.78900115  0.12715448  0.30508304     1.49000
C28         C  0.75842636  0.09701301  0.26750773     0.92400
O29         O  0.74492162  0.21948412  0.26069757    -0.81200
O30         O  0.81926171  0.27016645  0.30417040    -0.74700
Al31       Al  0.79925962  0.19411785  0.26740639     1.90100
O32         O  0.73992911  0.27066317  0.28653612    -0.73800
O33         O  0.79436987  0.21454836  0.33421288    -0.73700
O34         O  0.71510169  0.20636763  0.31457239    -0.79300
O35         O  0.82887423  0.14821266  0.32485173    -0.77500
O36         O  0.78565376  0.18595495  0.29370825    -1.13700
O37         O  0.83630128  0.10489355  0.28881357    -0.72800
C38         C  0.86127338  0.12517937  0.27615521     0.97900
C39         C  0.72961407  0.25795256  0.26848680     0.94300
Al40       Al  0.76838661  0.23640012  0.30874352     1.55600
O41         O  0.77903721  0.13077986  0.25858959    -0.77500
C42         C  0.82286517  0.18249940  0.33750905     0.98400
C43         C  0.83357247  0.28230803  0.28686672     0.93300
O44         O  0.82315729  0.25893463  0.27082776    -0.82800
O45         O  0.57895235  0.74885057  0.02318072    -0.82300
C46         C  0.46273897  0.84607748  0.07197307     0.97100
O47         O  0.46784691  0.80410637  0.06431424    -0.71400
O48         O  0.49377915  0.74029091  0.03686421    -0.75000
Al49       Al  0.52078805  0.77304152  0.05972580     1.49000
C50         C  0.48561133  0.75293914  0.01859542     0.92400
O51         O  0.53899233  0.87921859  0.01045514    -0.81200
O52         O  0.59341465  0.90363510  0.04173620    -0.74700
Al53       Al  0.55716331  0.81474970  0.01939840     1.90100
O54         O  0.50683771  0.90864640  0.03775076    -0.73800
O55         O  0.58171825  0.85905582  0.07686173    -0.73700
O56         O  0.49458257  0.87410213  0.07443824    -0.79300
O57         O  0.54494716  0.79397347  0.08576504    -0.77500
O58         O  0.54065197  0.82296927  0.04527659    -1.13700
O59         O  0.57099701  0.73790670  0.05626292    -0.72800
C60         C  0.58540544  0.72386827  0.03925160     0.97900
C61         C  0.51750868  0.91272096  0.01922465     0.94300
Al62       Al  0.54400942  0.88149981  0.05693540     1.55600
O63         O  0.50313197  0.79042343  0.01101418    -0.77500
C64         C  0.57469769  0.82456544  0.08917055     0.98400
C65         C  0.61952457  0.88234086  0.02987006     0.93300
O66         O  0.61316733  0.83830877  0.02475100    -0.82800
O67         O  0.67348413  0.74436326  0.22712914    -0.82300
C68         C  0.79214926  0.83647137  0.17754582     0.97100
O69         O  0.78613086  0.79495595  0.18543007    -0.71400
O70         O  0.75833502  0.73247859  0.21309680    -0.75000
Al71       Al  0.73211414  0.76617487  0.19042525     1.49000
C72         C  0.76709810  0.74508112  0.23131931     0.92400
O73         O  0.71766076  0.87276227  0.24010854    -0.81200
O74         O  0.66382754  0.89961760  0.20902592    -0.74700
Al75       Al  0.69758823  0.80932507  0.23095825     1.90100
O76         O  0.75078413  0.90174350  0.21306348    -0.73800
O77         O  0.67447326  0.85527293  0.17336960    -0.73700
O78         O  0.76151233  0.86645124  0.17608547    -0.79300
O79         O  0.70855882  0.78800009  0.16462135    -0.77500
O80         O  0.71408274  0.81702882  0.20504360    -1.13700
O81         O  0.68069600  0.73293834  0.19401568    -0.72800
C82         C  0.66527231  0.72010816  0.21099928     0.97900
C83         C  0.73980502  0.90590751  0.23157213     0.94300
Al84       Al  0.71264655  0.87585119  0.19365200     1.55600
O85         O  0.75090454  0.78327474  0.23895246    -0.77500
C86         C  0.68090478  0.82065170  0.16095940     0.98400
C87         C  0.63708363  0.87932139  0.22089134     0.93300
O88         O  0.64224389  0.83510627  0.22596968    -0.82800
O89         O  0.35864100  0.18056682  0.77532303    -0.82300
C90         C  0.20834438  0.17089152  0.82346080     0.97100
O91         O  0.23925910  0.14114903  0.82443468    -0.71400
O92         O  0.25262806  0.10831529  0.78736123    -0.75000
Al93       Al  0.28920502  0.13485583  0.80728010     1.49000
C94         C  0.26379273  0.10529241  0.76885130     0.92400
O95         O  0.24796382  0.22746290  0.76272878    -0.81200
O96         O  0.31759977  0.27926507  0.80782706    -0.74700
Al97       Al  0.30238274  0.20360460  0.77045666     1.90100
O98         O  0.23959998  0.27703226  0.78896861    -0.73800
O99         O  0.29187431  0.22208206  0.83708519    -0.73700
O100        O  0.21406099  0.21327629  0.81642917    -0.79300
O101        O  0.32615371  0.15524262  0.82813832    -0.77500
O102        O  0.28630265  0.19415340  0.79640030    -1.13700
O103        O  0.33936256  0.11480769  0.79219036    -0.72800
C104        C  0.36571384  0.13689678  0.78067141     0.97900
C105        C  0.23114073  0.26508770  0.77061370     0.94300
Al106      Al  0.26718651  0.24382288  0.81143327     1.55600
O107        O  0.28514873  0.13952917  0.76066754    -0.77500
C108        C  0.31976474  0.18960962  0.84063761     0.98400
C109        C  0.33082582  0.29404849  0.79071915     0.93300
O110        O  0.32358536  0.26946054  0.77459300    -0.82800
O111        O  0.39451890  0.17260919  0.97776705    -0.82300
C112        C  0.54115679  0.16722371  0.92775238     0.97100
O113        O  0.51024580  0.13742961  0.92631354    -0.71400
O114        O  0.50111838  0.10404073  0.96347866    -0.75000
Al115      Al  0.46198680  0.12943999  0.94458370     1.49000
C116        C  0.49260211  0.10136021  0.98231026     0.92400
O117        O  0.50454167  0.22323673  0.98876953    -0.81200
O118        O  0.43140717  0.27298025  0.94470757    -0.74700
Al119      Al  0.45036267  0.19775544  0.98179319     1.90100
O120        O  0.51050076  0.27307972  0.96261321    -0.73800
O121        O  0.45641483  0.21596918  0.91517558    -0.73700
O122        O  0.53516113  0.20928683  0.93511458    -0.79300
O123        O  0.42238062  0.14959675  0.92481651    -0.77500
O124        O  0.46472405  0.18874830  0.95567353    -1.13700
O125        O  0.41392924  0.10701986  0.96076205    -0.72800
C126        C  0.38819787  0.12845526  0.97280381     0.97900
C127        C  0.52079268  0.26077736  0.98066697     0.94300
Al128      Al  0.48211929  0.23877179  0.94052795     1.55600
O129        O  0.47055529  0.13446117  0.99097516    -0.77500
C130        C  0.42759266  0.18398415  0.91223197     0.98400
C131        C  0.41776389  0.28678394  0.96191395     0.93300
O132        O  0.42696927  0.26315474  0.97803906    -0.82800
O133        O  0.18093332  0.75275719  0.72785253    -0.82300
C134        C  0.29117576  0.84986484  0.67644327     0.97100
O135        O  0.28689640  0.80767331  0.68398064    -0.71400
O136        O  0.26352921  0.74306853  0.71190543    -0.75000
Al137      Al  0.23452358  0.77640837  0.68977196     1.49000
C138        C  0.27386325  0.75633450  0.72985852     0.92400
O139        O  0.22289289  0.88248109  0.73957028    -0.81200
O140        O  0.16378721  0.90653094  0.70969104    -0.74700
Al141      Al  0.20357626  0.81848094  0.73105336     1.90100
O142        O  0.25068328  0.91396656  0.71165072    -0.73800
O143        O  0.17210481  0.86235034  0.67402202    -0.73700
O144        O  0.25920018  0.87787458  0.67474240    -0.79300
O145        O  0.20822441  0.79746829  0.66431053    -0.77500
O146        O  0.21649861  0.82665862  0.70476018    -1.13700
O147        O  0.18446370  0.74131480  0.69452055    -0.72800
C148        C  0.17099437  0.72859841  0.71191881     0.97900
C149        C  0.24289501  0.91665993  0.73056793     0.94300
Al150      Al  0.21166003  0.88524020  0.69329537     1.55600
O151        O  0.25850245  0.79485794  0.73752999    -0.77500
C152        C  0.17895565  0.82867325  0.66123087     0.98400
C153        C  0.13939936  0.88512193  0.72232109     0.93300
O154        O  0.14709351  0.84167293  0.72769095    -0.82800
O155        O  0.07334758  0.74745643  0.52458049    -0.82300
C156        C  0.95660274  0.84089457  0.57410689     0.97100
O157        O  0.96262316  0.79855313  0.56690427    -0.71400
O158        O  0.98948747  0.73317946  0.53980061    -0.75000
Al159      Al  0.01662210  0.76951982  0.56185351     1.49000
C160        C  0.98002565  0.74421554  0.52149688     0.92400
O161        O  0.02522254  0.87299515  0.51137542    -0.81200
O162        O  0.08194132  0.90368129  0.54104485    -0.74700
Al163      Al  0.04772536  0.81101552  0.52056946     1.90100
O164        O  0.99477954  0.90352981  0.53891056    -0.73800
O165        O  0.07548726  0.86028268  0.57717379    -0.73700
O166        O  0.98783668  0.86997169  0.57618637    -0.79300
O167        O  0.04180338  0.79368830  0.58714545    -0.77500
O168        O  0.03328710  0.81980279  0.54661598    -1.13700
O169        O  0.06820087  0.73636164  0.55786863    -0.72800
C170        C  0.08292792  0.72391477  0.54064577     0.97900
C171        C  0.00293825  0.90589944  0.52002613     0.94300
Al172      Al  0.03504048  0.87939223  0.55760642     1.55600
O173        O  0.99467070  0.78286047  0.51362821    -0.77500
C174        C  0.07043278  0.82605919  0.58988285     0.98400
C175        C  0.10779027  0.88298215  0.52885671     0.93300
O176        O  0.10272567  0.83841618  0.52433659    -0.82800
O177        O  0.17610525  0.01422623  0.02300033    -0.82300
C178        C  0.29007567  0.91503903  0.07210152     0.97100
O179        O  0.28559951  0.95711784  0.06454548    -0.71400
O180        O  0.26122312  0.02100948  0.03710883    -0.75000
Al181      Al  0.23325475  0.98927241  0.05977237     1.49000
C182        C  0.26980895  0.00807943  0.01889443     0.92400
O183        O  0.21477215  0.88292752  0.01033208    -0.81200
O184        O  0.15928702  0.86001477  0.04149734    -0.74700
Al185      Al  0.19723781  0.94783635  0.01929238     1.90100
O186        O  0.24590150  0.85327930  0.03776326    -0.73800
O187        O  0.17119606  0.90386478  0.07693909    -0.73700
O188        O  0.25791527  0.88748429  0.07442387    -0.79300
O189        O  0.20850714  0.96899706  0.08564105    -0.77500
O190        O  0.21296465  0.93955889  0.04526384    -1.13700
O191        O  0.18365254  0.02575375  0.05610566    -0.72800
C192        C  0.16920665  0.03939159  0.03905247     0.97900
C193        C  0.23627025  0.84965657  0.01913071     0.94300
Al194      Al  0.20870878  0.88106626  0.05684528     1.55600
O195        O  0.25186178  0.97102251  0.01112816    -0.77500
C196        C  0.17951370  0.93779877  0.08938427     0.98400
C197        C  0.13363666  0.88173185  0.02961665     0.93300
O198        O  0.14084332  0.92544877  0.02441267    -0.82800
O199        O  0.06989451  0.01007018  0.22713074    -0.82300
C200        C  0.96287705  0.90671468  0.17593313     0.97100
O201        O  0.96600544  0.94920704  0.18338878    -0.71400
O202        O  0.98682925  0.01685313  0.21038150    -0.75000
Al203      Al  0.01727795  0.98242424  0.18911099     1.49000
C204        C  0.97579372  0.00480652  0.22831893     0.92400
O205        O  0.02785060  0.88095733  0.24005846    -0.81200
O206        O  0.08981510  0.85563617  0.21080184    -0.74700
Al207      Al  0.04738472  0.94433325  0.23105446     1.90100
O208        O  0.00323970  0.84630482  0.21200037    -0.73800
O209        O  0.08253278  0.89801880  0.17467888    -0.73700
O210        O  0.99541551  0.87934239  0.17475805    -0.79300
O211        O  0.04443047  0.96044224  0.16422314    -0.77500
O212        O  0.03585690  0.93386309  0.20474348    -1.13700
O213        O  0.06648940  0.01919342  0.19372758    -0.72800
C214        C  0.07930132  0.03371876  0.21099342     0.97900
C215        C  0.00879547  0.84592379  0.23111522     0.94300
Al216      Al  0.04246095  0.87477237  0.19379684     1.55600
O217        O  0.99190634  0.96775474  0.23671578    -0.77500
C218        C  0.07542845  0.93130477  0.16178305     0.98400
C219        C  0.11280450  0.87790713  0.22376480     0.93300
O220        O  0.10420552  0.92137895  0.22882930    -0.82800
O221        O  0.88847522  0.58263836  0.27419011    -0.82300
C222        C  0.03671304  0.59197985  0.32266105     0.97100
O223        O  0.00492319  0.62028980  0.32481550    -0.71400
O224        O  0.99236361  0.65635029  0.28828468    -0.75000
Al225      Al  0.95531748  0.62719838  0.30732931     1.49000
C226        C  0.98259601  0.65963458  0.26961270     0.92400
O227        O  0.00009422  0.53816995  0.26194998    -0.81200
O228        O  0.92869400  0.48356225  0.30610120    -0.74700
Al229      Al  0.94502647  0.56075701  0.26948820     1.90100
O230        O  0.00654014  0.48600260  0.28732564    -0.73800
O231        O  0.95535009  0.53973412  0.33612201    -0.73700
O232        O  0.03180145  0.55005836  0.31488538    -0.79300
O233        O  0.91716856  0.60343727  0.32721765    -0.77500
O234        O  0.95985087  0.56896924  0.29554875    -1.13700
O235        O  0.90595169  0.64779611  0.29197066    -0.72800
C236        C  0.88087064  0.62610425  0.27972509     0.97900
C237        C  0.01624793  0.49983467  0.26939685     0.94300
Al238      Al  0.97918180  0.51886952  0.31004054     1.55600
O239        O  0.96225342  0.62542993  0.26077703    -0.77500
C240        C  0.92487769  0.56916571  0.33951171     0.98400
C241        C  0.91636354  0.46928049  0.28869005     0.93300
O242        O  0.92417159  0.49447535  0.27281528    -0.82800
O243        O  0.85740230  0.57983752  0.47886699    -0.82300
C244        C  0.71128176  0.59597258  0.42921055     0.97100
O245        O  0.74422962  0.62263537  0.42691596    -0.71400
O246        O  0.75732540  0.65752102  0.46341225    -0.75000
Al247      Al  0.79388360  0.62677022  0.44477094     1.49000
C248        C  0.76403397  0.65926450  0.48241556     0.92400
O249        O  0.74387908  0.53791932  0.48958968    -0.81200
O250        O  0.81430351  0.48283100  0.44517800    -0.74700
Al251      Al  0.79986137  0.55940094  0.48252735     1.90100
O252        O  0.73631837  0.48798232  0.46355356    -0.73800
O253        O  0.79032938  0.54048860  0.41555420    -0.73700
O254        O  0.71456624  0.55377921  0.43672822    -0.79300
O255        O  0.83206031  0.60096151  0.42508494    -0.77500
O256        O  0.78645091  0.56884556  0.45634688    -1.13700
O257        O  0.84326764  0.64499378  0.46064625    -0.72800
C258        C  0.86697871  0.62264008  0.47321477     0.97900
C259        C  0.72635850  0.50087539  0.48157946     0.94300
Al260      Al  0.76547460  0.52019346  0.44138418     1.55600
O261        O  0.78323363  0.62453282  0.49144282    -0.77500
C262        C  0.82235224  0.56785501  0.41247564     0.98400
C263        C  0.82611663  0.46748024  0.46242420     0.93300
O264        O  0.81926982  0.49244753  0.47857267    -0.82800
O265        O  0.57560778  0.01758076  0.73098679    -0.82300
C266        C  0.46145385  0.92143818  0.68074510     0.97100
O267        O  0.46620564  0.96308166  0.68884197    -0.71400
O268        O  0.49204955  0.02767231  0.71654590    -0.75000
Al269      Al  0.51933883  0.99367186  0.69390428     1.49000
C270        C  0.48270218  0.01511569  0.73472517     0.92400
O271        O  0.53404944  0.88793317  0.74358903    -0.81200
O272        O  0.59023868  0.86334535  0.71274003    -0.74700
Al273      Al  0.55279224  0.95221037  0.73469471     1.90100
O274        O  0.50295088  0.85907275  0.71602625    -0.73800
O275        O  0.57992658  0.90620150  0.67706458    -0.73700
O276        O  0.49290041  0.89256492  0.67921041    -0.79300
O277        O  0.54390215  0.97182759  0.66813276    -0.77500
O278        O  0.53796689  0.94375862  0.70858657    -1.13700
O279        O  0.57002381  0.02772548  0.69766477    -0.72800
C280        C  0.58510687  0.04048838  0.71471233     0.97900
C281        C  0.51323910  0.85437659  0.73451791     0.94300
Al282      Al  0.54137365  0.88506443  0.69709569     1.55600
O283        O  0.49846878  0.97672053  0.74227511    -0.77500
C284        C  0.57241920  0.93999375  0.66451810     0.98400
C285        C  0.61585492  0.88517629  0.72468868     0.93300
O286        O  0.60875567  0.92873671  0.73015860    -0.82800
O287        O  0.67116040  0.01035602  0.52401119    -0.82300
C288        C  0.78454852  0.91273212  0.57351078     0.97100
O289        O  0.77985944  0.95472067  0.56589811    -0.71400
O290        O  0.75514344  0.01884933  0.53846504    -0.75000
Al291      Al  0.72734333  0.98640158  0.56107989     1.49000
C292        C  0.76392661  0.00582260  0.52029054     0.92400
O293        O  0.71126740  0.87953275  0.51163261    -0.81200
O294        O  0.65459379  0.85634686  0.54242698    -0.74700
Al295      Al  0.69283840  0.94422482  0.52045368     1.90100
O296        O  0.74124817  0.84960889  0.53926318    -0.73800
O297        O  0.66527111  0.90092961  0.57802166    -0.73700
O298        O  0.75249055  0.88494217  0.57587566    -0.79300
O299        O  0.70263209  0.96557167  0.58696849    -0.77500
O300        O  0.70775631  0.93630441  0.54650089    -1.13700
O301        O  0.67734018  0.02271546  0.55719533    -0.72800
C302        C  0.66399450  0.03614004  0.53987109     0.97900
C303        C  0.73239616  0.84607730  0.52051550     0.94300
Al304      Al  0.70351333  0.87785407  0.55812154     1.55600
O305        O  0.74740254  0.96767430  0.51277768    -0.77500
C306        C  0.67301644  0.93495657  0.59056288     0.98400
C307        C  0.62946463  0.87771528  0.53016156     0.93300
O308        O  0.63653202  0.92149159  0.52507353    -0.82800
O309        O  0.39521277  0.59363088  0.77233163    -0.82300
C310        C  0.53946009  0.59890683  0.82335335     0.97100
O311        O  0.50747767  0.62665532  0.82546697    -0.71400
O312        O  0.50209241  0.65970568  0.78833802    -0.75000
Al313      Al  0.46123373  0.63503212  0.80644020     1.49000
C314        C  0.49471586  0.66330572  0.76946222     0.92400
O315        O  0.50500206  0.54148243  0.76228390    -0.81200
O316        O  0.43097008  0.49212217  0.80592939    -0.74700
Al317      Al  0.45107847  0.56773777  0.76892507     1.90100
O318        O  0.51019067  0.49114562  0.78824079    -0.73800
O319        O  0.45534930  0.54931371  0.83551881    -0.73700
O320        O  0.53483530  0.55672943  0.81573190    -0.79300
O321        O  0.42011567  0.61453688  0.82547326    -0.77500
O322        O  0.46440111  0.57609861  0.79515263    -1.13700
O323        O  0.41498309  0.65830665  0.78972610    -0.72800
C324        C  0.38924611  0.63764746  0.77753107     0.97900
C325        C  0.52048093  0.50339963  0.77015306     0.94300
Al326      Al  0.48167285  0.52622563  0.81028076     1.55600
O327        O  0.47289651  0.63080975  0.76022463    -0.77500
C328        C  0.42576601  0.58052588  0.83819729     0.98400
C329        C  0.41664980  0.47967367  0.78865888     0.93300
O330        O  0.42644295  0.50324484  0.77258332    -0.82800
O331        O  0.36071665  0.58904831  0.97705135    -0.82300
C332        C  0.21237602  0.59779106  0.92883533     0.97100
O333        O  0.24418235  0.62597165  0.92672983    -0.71400
O334        O  0.25512280  0.65968669  0.96356994    -0.75000
Al335      Al  0.29302357  0.63301659  0.94439426     1.49000
C336        C  0.26344619  0.66180090  0.98239231     0.92400
O337        O  0.25049192  0.54019031  0.98926828    -0.81200
O338        O  0.32041924  0.48880196  0.94410896    -0.74700
Al339      Al  0.30473429  0.56498877  0.98155583     1.90100
O340        O  0.24257100  0.49056237  0.96313449    -0.73800
O341        O  0.29406945  0.54640401  0.91497361    -0.73700
O342        O  0.21720484  0.55562465  0.93626956    -0.79300
O343        O  0.33096428  0.61158183  0.92400935    -0.77500
O344        O  0.28945493  0.57398470  0.95559668    -1.13700
O345        O  0.34208232  0.65456745  0.96006553    -0.72800
C346        C  0.36769266  0.63289318  0.97200080     0.97900
C347        C  0.23346107  0.50278714  0.98136680     0.94300
Al348      Al  0.27001239  0.52433659  0.94073169     1.55600
O349        O  0.28547015  0.62865382  0.99094168    -0.77500
C350        C  0.32261078  0.57818037  0.91126324     0.98400
C351        C  0.33486439  0.47499636  0.96115360     0.93300
O352        O  0.32737375  0.49951947  0.97732838    -0.82800
O353        O  0.67916243  0.51316949  0.02198349    -0.82300
C354        C  0.78908398  0.41720563  0.07390093     0.97100
O355        O  0.78466575  0.45941668  0.06641357    -0.71400
O356        O  0.76211624  0.52419324  0.03837761    -0.75000
Al357      Al  0.73220968  0.49010576  0.06028461     1.49000
C358        C  0.77290069  0.51111539  0.02042911     0.92400
O359        O  0.72340910  0.38504449  0.01031550    -0.81200
O360        O  0.66454734  0.35838559  0.03947374    -0.74700
Al361      Al  0.70271885  0.44812817  0.01878084     1.90100
O362        O  0.75165479  0.35468673  0.03832247    -0.73800
O363        O  0.66992043  0.40227501  0.07511847    -0.73700
O364        O  0.75713323  0.38911319  0.07554315    -0.79300
O365        O  0.70431270  0.46822092  0.08532391    -0.77500
O366        O  0.71517760  0.43991422  0.04508583    -1.13700
O367        O  0.68226097  0.52448852  0.05532252    -0.72800
C368        C  0.66903554  0.53711943  0.03792664     0.97900
C369        C  0.74433348  0.35187873  0.01939026     0.94300
Al370      Al  0.71100712  0.38101018  0.05634095     1.55600
O371        O  0.75735337  0.47299042  0.01251098    -0.77500
C372        C  0.67496405  0.43658761  0.08780159     0.98400
C373        C  0.63952234  0.37951052  0.02714452     0.93300
O374        O  0.64645395  0.42332087  0.02193918    -0.82800
O375        O  0.57066401  0.50938167  0.22635373    -0.82300
C376        C  0.45827642  0.40793878  0.17628799     0.97100
O377        O  0.46201816  0.44987808  0.18415513    -0.71400
O378        O  0.48469111  0.51488844  0.21181591    -0.75000
Al379      Al  0.51369761  0.48303598  0.18936644     1.49000
C380        C  0.47639464  0.50280459  0.23013638     0.92400
O381        O  0.53194377  0.37875682  0.23921532    -0.81200
O382        O  0.58868965  0.35550200  0.20814397    -0.74700
Al383      Al  0.54951017  0.44317278  0.23021553     1.90100
O384        O  0.50250456  0.34701400  0.21170506    -0.73800
O385        O  0.57702407  0.39854934  0.17251256    -0.73700
O386        O  0.49044101  0.38017086  0.17479291    -0.79300
O387        O  0.53932371  0.46277084  0.16359176    -0.77500
O388        O  0.53434386  0.43399410  0.20411244    -1.13700
O389        O  0.56255308  0.52068560  0.19327824    -0.72800
C390        C  0.57754741  0.53419268  0.21025981     0.97900
C391        C  0.51203436  0.34413157  0.23039952     0.94300
Al392      Al  0.53945603  0.37533487  0.19260749     1.55600
O393        O  0.49470713  0.46636128  0.23804536    -0.77500
C394        C  0.56873106  0.43206876  0.15991838     0.98400
C395        C  0.61379543  0.37682472  0.22045634     0.93300
O396        O  0.60640082  0.42048751  0.22585170    -0.82800
O397        O  0.35334174  0.08316895  0.47689203    -0.82300
C398        C  0.20687974  0.09609523  0.42698171     0.97100
O399        O  0.23950986  0.12307847  0.42501834    -0.71400
O400        O  0.24937643  0.15612481  0.46218196    -0.75000
Al401      Al  0.28756346  0.12836632  0.44337297     1.49000
C402        C  0.25734519  0.15830982  0.48107875     0.92400
O403        O  0.24134867  0.03703600  0.48771231    -0.81200
O404        O  0.31117225  0.98359493  0.44323119    -0.74700
Al405      Al  0.29634187  0.06014552  0.48060397     1.90100
O406        O  0.23255658  0.98789868  0.46144591    -0.73800
O407        O  0.28902320  0.04202512  0.41370405    -0.73700
O408        O  0.21050412  0.05356322  0.43414595    -0.79300
O409        O  0.32658908  0.10549732  0.42376297    -0.77500
O410        O  0.28219300  0.06958494  0.45448318    -1.13700
O411        O  0.33568475  0.14845572  0.45957197    -0.72800
C412        C  0.36054911  0.12708145  0.47189122     0.97900
C413        C  0.22338045  0.00045412  0.47966418     0.94300
Al414      Al  0.26225120  0.02070062  0.43926601     1.55600
O415        O  0.27793580  0.12425321  0.48982397    -0.77500
C416        C  0.31973662  0.07182625  0.41093183     0.98400
C417        C  0.32514010  0.96948921  0.46027406     0.93300
O418        O  0.31769321  0.99400868  0.47646708    -0.82800
O419        O  0.39187635  0.08385398  0.27272654    -0.82300
C420        C  0.53884523  0.09424662  0.32291306     0.97100
O421        O  0.50640267  0.12139800  0.32483231    -0.71400
O422        O  0.49610043  0.15550581  0.28790844    -0.75000
Al423      Al  0.45813867  0.12720868  0.30667371     1.49000
C424        C  0.48878541  0.15727862  0.26894353     0.92400
O425        O  0.50322086  0.03555882  0.26126366    -0.81200
O426        O  0.43425000  0.98229455  0.30572601    -0.74700
Al427      Al  0.44860127  0.05977972  0.26885337     1.90100
O428        O  0.51227900  0.98641178  0.28734320    -0.73800
O429        O  0.45730949  0.03959674  0.33543505    -0.73700
O430        O  0.53519665  0.05227356  0.31499561    -0.79300
O431        O  0.41951956  0.10397610  0.32656530    -0.77500
O432        O  0.46314090  0.06857803  0.29502208    -1.13700
O433        O  0.40976289  0.14810034  0.29083234    -0.72800
C434        C  0.38459292  0.12735027  0.27839828     0.97900
C435        C  0.52078621  0.99857772  0.26906235     0.94300
Al436      Al  0.48329544  0.01923107  0.30974429     1.55600
O437        O  0.46806095  0.12335382  0.26009283    -0.77500
C438        C  0.42741831  0.06980599  0.33893093     0.98400
C439        C  0.41924877  0.96905234  0.28870320     0.93300
O440        O  0.42614814  0.99406308  0.27265690    -0.82800
O441        O  0.07627220  0.51837740  0.72949779    -0.82300
C442        C  0.96251520  0.41982533  0.68016996     0.97100
O443        O  0.96784145  0.46173528  0.68784424    -0.71400
O444        O  0.99289393  0.52453304  0.71531355    -0.75000
Al445      Al  0.02026138  0.49314878  0.69255954     1.49000
C446        C  0.98310199  0.51069107  0.73322187     0.92400
O447        O  0.03946717  0.38576101  0.74162676    -0.81200
O448        O  0.09497867  0.36513299  0.70988671    -0.74700
Al449      Al  0.05575984  0.45142678  0.73288039     1.90100
O450        O  0.00849976  0.35647486  0.71412861    -0.73800
O451        O  0.08129418  0.40859978  0.67461542    -0.73700
O452        O  0.99413895  0.39134561  0.67791294    -0.79300
O453        O  0.04386027  0.47357495  0.66647125    -0.77500
O454        O  0.04027591  0.44324482  0.70681831    -1.13700
O455        O  0.07036850  0.52848255  0.69626069    -0.72800
C456        C  0.08413403  0.54277142  0.71337365     0.97900
C457        C  0.01909749  0.35177207  0.73256450     0.94300
Al458      Al  0.04461529  0.38516802  0.69493751     1.55600
O459        O  0.00060773  0.47338084  0.74090517    -0.77500
C460        C  0.07266312  0.44264014  0.66237988     0.98400
C461        C  0.12004691  0.38709505  0.72208889     0.93300
O462        O  0.11224998  0.43045101  0.72766926    -0.82800
O463        O  0.17154290  0.51097548  0.52344053    -0.82300
C464        C  0.28425712  0.40946736  0.57225579     0.97100
O465        O  0.28119780  0.45131954  0.56430766    -0.71400
O466        O  0.25729756  0.51711505  0.53710458    -0.75000
Al467      Al  0.22951204  0.48502779  0.55981898     1.49000
C468        C  0.26469121  0.50469771  0.51872470     0.92400
O469        O  0.20981689  0.37964960  0.51044853    -0.81200
O470        O  0.15283798  0.35737473  0.54158927    -0.74700
Al471      Al  0.19224089  0.44448682  0.51934411     1.90100
O472        O  0.23893744  0.34826778  0.53809516    -0.73800
O473        O  0.16481808  0.40281593  0.57656039    -0.73700
O474        O  0.25133157  0.38313614  0.57468006    -0.79300
O475        O  0.20478819  0.46518358  0.58579843    -0.77500
O476        O  0.20797169  0.43589191  0.54525338    -1.13700
O477        O  0.18067955  0.52248865  0.55650404    -0.72800
C478        C  0.16595050  0.53640201  0.53956822     0.97900
C479        C  0.23020041  0.34549757  0.51930485     0.94300
Al480      Al  0.20225388  0.37778779  0.55694860     1.55600
O481        O  0.24690211  0.46735701  0.51117362    -0.77500
C482        C  0.17351317  0.43662077  0.58903488     0.98400
C483        C  0.12745389  0.37888520  0.52955452     0.93300
O484        O  0.13530235  0.42225830  0.52403133    -0.82800
O485        O  0.89536186  0.08904241  0.77098346    -0.82300
C486        C  0.03715958  0.09998403  0.82372794     0.97100
O487        O  0.00423194  0.12667117  0.82572920    -0.71400
O488        O  0.99542845  0.16309604  0.78926810    -0.75000
Al489      Al  0.95653721  0.13247948  0.80685333     1.49000
C490        C  0.99164975  0.16435860  0.77008005     0.92400
O491        O  0.00765242  0.04262120  0.76231487    -0.81200
O492        O  0.93360607  0.98859342  0.80519288    -0.74700
Al493      Al  0.95231039  0.06616055  0.76852550     1.90100
O494        O  0.01275040  0.99198718  0.78803362    -0.73800
O495        O  0.95681532  0.04569965  0.83542849    -0.73700
O496        O  0.03421067  0.05828189  0.81550935    -0.79300
O497        O  0.91623965  0.10658930  0.82555038    -0.77500
O498        O  0.96382479  0.07460556  0.79494997    -1.13700
O499        O  0.90907781  0.15290356  0.79013731    -0.72800
C500        C  0.88615581  0.13177367  0.77682029     0.97900
C501        C  0.02354345  0.00472419  0.77013589     0.94300
Al502      Al  0.98296690  0.02514954  0.80990613     1.55600
O503        O  0.97251013  0.13024223  0.76048436    -0.77500
C504        C  0.92487119  0.07334368  0.83824117     0.98400
C505        C  0.91975621  0.97623790  0.78779124     0.93300
O506        O  0.92956495  0.00029476  0.77179921    -0.82800
O507        O  0.86222911  0.08520715  0.97712486    -0.82300
C508        C  0.71368686  0.10207109  0.92870495     0.97100
O509        O  0.74682408  0.12837385  0.92649025    -0.71400
O510        O  0.76174011  0.16290399  0.96297443    -0.75000
Al511      Al  0.79703815  0.13203681  0.94388592     1.49000
C512        C  0.77005281  0.16474416  0.98184257     0.92400
O513        O  0.74965619  0.04372954  0.98971068    -0.81200
O514        O  0.81582176  0.98763447  0.94427763    -0.74700
Al515      Al  0.80500673  0.06491759  0.98164799     1.90100
O516        O  0.73933192  0.99403175  0.96382132    -0.73800
O517        O  0.79084138  0.04567751  0.91487764    -0.73700
O518        O  0.71628071  0.06043895  0.93688119    -0.79300
O519        O  0.83381383  0.10563775  0.92381413    -0.77500
O520        O  0.78977129  0.07429625  0.95566842    -1.13700
O521        O  0.84721053  0.15035440  0.95911403    -0.72800
C522        C  0.87136041  0.12812274  0.97149121     0.97900
C523        C  0.73163189  0.00655118  0.98216009     0.94300
Al524      Al  0.76721545  0.02586703  0.94110840     1.55600
O525        O  0.78921862  0.12981876  0.99068533    -0.77500
C526        C  0.82289548  0.07272800  0.91132397     0.98400
C527        C  0.83062920  0.97352284  0.96118941     0.93300
O528        O  0.82438229  0.99822898  0.97744645    -0.82800
O529        O  0.89240336  0.67495022  0.97690914    -0.82300
C530        C  0.04048669  0.66695749  0.92808917     0.97100
O531        O  0.00849246  0.63920471  0.92578060    -0.71400
O532        O  0.99821957  0.60436569  0.96261653    -0.75000
Al533      Al  0.96009856  0.63188274  0.94372859     1.49000
C534        C  0.98916234  0.60126037  0.98137456     0.92400
O535        O  0.00303486  0.72265591  0.98916016    -0.81200
O536        O  0.93352719  0.77629587  0.94477516    -0.74700
Al537      Al  0.94873216  0.69861309  0.98145543     1.90100
O538        O  0.01131169  0.77336692  0.96346615    -0.73800
O539        O  0.95840202  0.71972860  0.91507564    -0.73700
O540        O  0.03592578  0.70900635  0.93578403    -0.79300
O541        O  0.92173279  0.65418998  0.92383399    -0.77500
O542        O  0.96391294  0.69052649  0.95537671    -1.13700
O543        O  0.91156933  0.61009870  0.95943996    -0.72800
C544        C  0.88593365  0.63105850  0.97164769     0.97900
C545        C  0.01995600  0.76046109  0.98164027     0.94300
Al546      Al  0.98342907  0.74058785  0.94083688     1.55600
O547        O  0.96757889  0.63451345  0.99021265    -0.77500
C548        C  0.92935064  0.68845518  0.91146381     0.98400
C549        C  0.91855062  0.78882970  0.96191997     0.93300
O550        O  0.92649918  0.76424779  0.97792750    -0.82800
O551        O  0.85818105  0.67540320  0.77358713    -0.82300
C552        C  0.71163206  0.66844856  0.82321453     0.97100
O553        O  0.74318711  0.63997759  0.82500034    -0.71400
O554        O  0.75206658  0.60626486  0.78780615    -0.75000
Al555      Al  0.79100927  0.63239871  0.80669283     1.49000
C556        C  0.76133803  0.60305097  0.76905892     0.92400
O557        O  0.74842128  0.72592642  0.76215668    -0.81200
O558        O  0.82026986  0.77673717  0.80648773    -0.74700
Al559      Al  0.80246452  0.70023743  0.76942051     1.90100
O560        O  0.74165420  0.77493009  0.78862199    -0.73800
O561        O  0.79536331  0.71913099  0.83604825    -0.73700
O562        O  0.71683905  0.71067167  0.81588447    -0.79300
O563        O  0.83041991  0.65347699  0.82636997    -0.77500
O564        O  0.78786520  0.69149362  0.79552375    -1.13700
O565        O  0.83880182  0.61007793  0.79064645    -0.72800
C566        C  0.86433856  0.63134165  0.77855066     0.97900
C567        C  0.73215424  0.76341470  0.77037293     0.94300
Al568      Al  0.76981924  0.74133999  0.81064919     1.55600
O569        O  0.78250742  0.63672153  0.76030526    -0.77500
C570        C  0.82445726  0.68766283  0.83904897     0.98400
C571        C  0.83375771  0.79034565  0.78919883     0.93300
O572        O  0.82579703  0.76536966  0.77323823    -0.82800
O573        O  0.07644826  0.25069644  0.02311625    -0.82300
C574        C  0.96100421  0.34839673  0.07229707     0.97100
O575        O  0.96595648  0.30616137  0.06479275    -0.71400
O576        O  0.99209922  0.24082115  0.03765394    -0.75000
Al577      Al  0.01915702  0.27533730  0.06001272     1.49000
C578        C  0.98347593  0.25190852  0.01928120     0.92400
O579        O  0.03405816  0.37938198  0.00972397    -0.81200
O580        O  0.09049507  0.40574711  0.04070547    -0.74700
Al581      Al  0.05336640  0.31579737  0.01904654     1.90100
O582        O  0.00368435  0.41070182  0.03714324    -0.73800
O583        O  0.07974829  0.36306149  0.07676982    -0.73700
O584        O  0.99265183  0.37696906  0.07407839    -0.79300
O585        O  0.04332551  0.29777188  0.08577197    -0.77500
O586        O  0.03811468  0.32500198  0.04508762    -1.13700
O587        O  0.06983227  0.24042450  0.05636497    -0.72800
C588        C  0.08475711  0.22695558  0.03931318     0.97900
C589        C  0.01268611  0.41309807  0.01836538     0.94300
Al590      Al  0.04153604  0.38414218  0.05636899     1.55600
O591        O  0.99935133  0.29002997  0.01142750    -0.77500
C592        C  0.07215051  0.32931307  0.08942554     0.98400
C593        C  0.11602602  0.38412488  0.02865421     0.93300
O594        O  0.10915101  0.34029259  0.02345602    -0.82800
O595        O  0.17318812  0.24493130  0.22949012    -0.82300
C596        C  0.28692880  0.34076850  0.17829201     0.97100
O597        O  0.28099700  0.29883303  0.18576908    -0.71400
O598        O  0.25643696  0.23518839  0.21385741    -0.75000
Al599      Al  0.22767750  0.26961165  0.19170503     1.49000
C600        C  0.26637687  0.24730966  0.23206142     0.92400
O601        O  0.21567830  0.37404080  0.24246483    -0.81200
O602        O  0.16088198  0.40091677  0.21214201    -0.74700
Al603      Al  0.19618009  0.31056130  0.23315934     1.90100
O604        O  0.24812394  0.40301044  0.21527890    -0.73800
O605        O  0.16925523  0.36054883  0.17599486    -0.73700
O606        O  0.25658826  0.37123664  0.17778058    -0.79300
O607        O  0.20121315  0.29260710  0.16649255    -0.77500
O608        O  0.21074441  0.31957077  0.20696611    -1.13700
O609        O  0.17696170  0.23580067  0.19613910    -0.72800
C610        C  0.16409923  0.22121672  0.21334508     0.97900
C611        C  0.23770205  0.40709254  0.23383396     0.94300
Al612      Al  0.20878410  0.37900960  0.19610771     1.55600
O613        O  0.25053837  0.28524547  0.24013321    -0.77500
C614        C  0.17403956  0.32624155  0.16329337     0.98400
C615        C  0.13420031  0.37974299  0.22374814     0.93300
O616        O  0.14008977  0.33571840  0.22904393    -0.82800
O617        O  0.35539763  0.66961180  0.27302962    -0.82300
C618        C  0.20950669  0.66004551  0.32348753     0.97100
O619        O  0.24146793  0.63211722  0.32512022    -0.71400
O620        O  0.24964735  0.60024952  0.28773480    -0.75000
Al621      Al  0.28901651  0.62566320  0.30652638     1.49000
C622        C  0.25804357  0.59781985  0.26889286     0.92400
O623        O  0.24533025  0.71975529  0.26246003    -0.81200
O624        O  0.31621915  0.77057691  0.30663376    -0.74700
Al625      Al  0.29939811  0.69446883  0.26942204     1.90100
O626        O  0.23719247  0.76805986  0.28901147    -0.73800
O627        O  0.29355253  0.71215664  0.33606432    -0.73700
O628        O  0.21412548  0.70254038  0.31635276    -0.79300
O629        O  0.32866919  0.64619883  0.32638965    -0.77500
O630        O  0.28527193  0.68506328  0.29559120    -1.13700
O631        O  0.33667447  0.60395951  0.28999787    -0.72800
C632        C  0.36170581  0.62537245  0.27766565     0.97900
C633        C  0.22819069  0.75660384  0.27066709     0.94300
Al634      Al  0.26661650  0.73433307  0.31089682     1.55600
O635        O  0.27925915  0.63140830  0.26014955    -0.77500
C636        C  0.32240889  0.68033448  0.33907584     0.98400
C637        C  0.33111324  0.78359845  0.28956360     0.93300
O638        O  0.32277021  0.75943967  0.27343653    -0.82800
O639        O  0.38691730  0.67025409  0.47759335    -0.82300
C640        C  0.53809241  0.66281364  0.43059242     0.97100
O641        O  0.50697564  0.63352026  0.42859710    -0.71400
O642        O  0.49434257  0.60117654  0.46557295    -0.75000
Al643      Al  0.45712749  0.62626706  0.44577166     1.49000
C644        C  0.48399519  0.59858061  0.48417934     0.92400
O645        O  0.49645575  0.72053041  0.49036466    -0.81200
O646        O  0.42715874  0.76953586  0.44472484    -0.74700
Al647      Al  0.44263434  0.69513210  0.48251073     1.90100
O648        O  0.50455511  0.77027282  0.46427980    -0.73800
O649        O  0.45525528  0.71162703  0.41577554    -0.73700
O650        O  0.53196614  0.70518760  0.43766769    -0.79300
O651        O  0.41959731  0.64611701  0.42499376    -0.77500
O652        O  0.45918376  0.68562990  0.45669860    -1.13700
O653        O  0.40749288  0.60470117  0.46091528    -0.72800
C654        C  0.38066254  0.62628524  0.47233964     0.97900
C655        C  0.51359491  0.75783139  0.48247647     0.94300
Al656      Al  0.47830703  0.73518161  0.44173132     1.55600
O657        O  0.46148047  0.63188676  0.49238896    -0.77500
C658        C  0.42666533  0.67968029  0.41220518     0.98400
C659        C  0.41172540  0.78333457  0.46162816     0.93300
O660        O  0.41977023  0.76006532  0.47796888    -0.82800
O661        O  0.67844652  0.25075432  0.72743164    -0.82300
C662        C  0.78944658  0.35102589  0.67779669     0.97100
O663        O  0.78507215  0.30815850  0.68459811    -0.71400
O664        O  0.76171279  0.24258589  0.71197212    -0.75000
Al665      Al  0.73274274  0.27586642  0.68982502     1.49000
C666        C  0.77119738  0.25479262  0.73017249     0.92400
O667        O  0.71807231  0.38015866  0.74031379    -0.81200
O668        O  0.65939142  0.40375992  0.70971160    -0.74700
Al669      Al  0.69986237  0.31622611  0.73118991     1.90100
O670        O  0.74597414  0.41247292  0.71262691    -0.73800
O671        O  0.67006010  0.36173100  0.67348208    -0.73700
O672        O  0.75721787  0.37855382  0.67581310    -0.79300
O673        O  0.70678958  0.29687208  0.66424803    -0.77500
O674        O  0.71344996  0.32533831  0.70492759    -1.13700
O675        O  0.68300977  0.23951252  0.69411462    -0.72800
C676        C  0.67022518  0.22582422  0.71152089     0.97900
C677        C  0.73810258  0.41454932  0.73152390     0.94300
Al678      Al  0.70835344  0.38414802  0.69369245     1.55600
O679        O  0.75494465  0.29270344  0.73802739    -0.77500
C680        C  0.67750167  0.32783685  0.66083835     0.98400
C681        C  0.63500603  0.38208321  0.72229655     0.93300
O682        O  0.64309120  0.33874539  0.72766378    -0.82800
O683        O  0.56975399  0.24661962  0.52197585    -0.82300
C684        C  0.45571839  0.33798804  0.57299051     0.97100
O685        O  0.46251953  0.29592502  0.56572989    -0.71400
O686        O  0.48857556  0.23260783  0.53792908    -0.75000
Al687      Al  0.51642154  0.26821934  0.56011841     1.49000
C688        C  0.47665277  0.24583276  0.52020398     0.92400
O689        O  0.52382771  0.37489915  0.51023929    -0.81200
O690        O  0.58122890  0.40219186  0.54013166    -0.74700
Al691      Al  0.54495692  0.31152474  0.51882201     1.90100
O692        O  0.49356185  0.40341490  0.53812198    -0.73800
O693        O  0.57452632  0.35878592  0.57601462    -0.73700
O694        O  0.48634044  0.36805558  0.57495311    -0.79300
O695        O  0.54188674  0.29153800  0.58561913    -0.77500
O696        O  0.53198938  0.31930204  0.54513420    -1.13700
O697        O  0.56832014  0.23648916  0.55541778    -0.72800
C698        C  0.58122864  0.22358959  0.53792768     0.97900
C699        C  0.50252072  0.40781668  0.51943053     0.94300
Al700      Al  0.53390797  0.37827757  0.55654184     1.55600
O701        O  0.49066041  0.28509539  0.51254681    -0.77500
C702        C  0.57001483  0.32435898  0.58864608     0.98400
C703        C  0.60667217  0.38167651  0.52764955     0.93300
O704        O  0.60051664  0.33775062  0.52223586    -0.82800
C705        C  0.63292677  0.28149343  0.63537120    -0.21800
C706        C  0.65196853  0.32555425  0.64181619    -0.09800
C707        C  0.64424921  0.36850388  0.63063903     0.29100
C708        C  0.61777604  0.36747471  0.61342123    -0.21800
C709        C  0.59767678  0.32380800  0.60714165    -0.09800
C710        C  0.60556114  0.28061679  0.61829342     0.29100
F711        F  0.58731755  0.23755329  0.61259625    -0.20300
H712        H  0.63833747  0.24809258  0.64389810     0.17400
H713        H  0.61260653  0.40124138  0.60511386     0.17400
F714        F  0.66280271  0.41150299  0.63623971    -0.20300
C715        C  0.46392049  0.53693601  0.51040060    -0.21800
C716        C  0.49236758  0.55245948  0.49504139    -0.09800
C717        C  0.52303561  0.51942963  0.48742161     0.29100
C718        C  0.52411183  0.47139575  0.49453966    -0.21800
C719        C  0.49517881  0.45549696  0.50960214    -0.09800
C720        C  0.46530639  0.48892473  0.51769458     0.29100
F721        F  0.43728905  0.47516802  0.53254659    -0.20300
H722        H  0.43940283  0.56135351  0.51618175     0.17400
H723        H  0.54865306  0.44705377  0.48872184     0.17400
F724        F  0.55179176  0.53342617  0.47293497    -0.20300
C725        C  0.37470759  0.72170192  0.36235380    -0.21800
C726        C  0.34830940  0.68149309  0.35788189    -0.09800
C727        C  0.34869620  0.64069180  0.37087782     0.29100
C728        C  0.37438359  0.64055855  0.38835201    -0.21800
C729        C  0.40101279  0.68067747  0.39304487    -0.09800
C730        C  0.40135917  0.72118896  0.37965721     0.29100
F731        F  0.42712941  0.76029204  0.38327758    -0.20300
H732        H  0.37532980  0.75302107  0.35219076     0.17400
H733        H  0.37342111  0.60870392  0.39822123     0.17400
F734        F  0.32361592  0.60120349  0.36681940    -0.20300
C735        C  0.22006918  0.51836451  0.26692762    -0.21800
C736        C  0.24926459  0.55153112  0.25825899    -0.09800
C737        C  0.27598871  0.53594129  0.24216781     0.29100
C738        C  0.27387000  0.48778458  0.23519594    -0.21800
C739        C  0.24502749  0.45440535  0.24400594    -0.09800
C740        C  0.21788352  0.47020971  0.25992516     0.29100
F741        F  0.18828667  0.43981523  0.26832554    -0.20300
H742        H  0.19949996  0.52947717  0.27949121     0.17400
H743        H  0.29455908  0.47671364  0.22267531     0.17400
F744        F  0.30555465  0.56638032  0.23376518    -0.20300
C745        C  0.13219267  0.28262092  0.13608941    -0.21800
C746        C  0.14791935  0.32653422  0.14443572    -0.09800
C747        C  0.13730058  0.37116928  0.13497621     0.29100
C748        C  0.11260927  0.37155191  0.11715802    -0.21800
C749        C  0.09686830  0.32771779  0.10873666    -0.09800
C750        C  0.10628211  0.28316273  0.11855364     0.29100
F751        F  0.09142861  0.24010421  0.11092962    -0.20300
H752        H  0.13944593  0.24797531  0.14334337     0.17400
H753        H  0.10554534  0.40634391  0.10997510     0.17400
F754        F  0.15162917  0.41446667  0.14266150    -0.20300
C755        C  0.72701247  0.52098434  0.76798877    -0.21800
C756        C  0.75316540  0.55623837  0.75850991    -0.09800
C757        C  0.77693961  0.54294199  0.74102269     0.29100
C758        C  0.77389435  0.49562853  0.73312289    -0.21800
C759        C  0.74728218  0.46061386  0.74242227    -0.09800
C760        C  0.72412962  0.47358402  0.76012881     0.29100
F761        F  0.69755887  0.44118272  0.76947769    -0.20300
H762        H  0.70905255  0.52993991  0.78172993     0.17400
H763        H  0.79200783  0.48659143  0.71945194     0.17400
F764        F  0.80415784  0.57496976  0.73187516    -0.20300
C765        C  0.96912153  0.53860683  0.00697971    -0.21800
C766        C  0.99790384  0.55490206  0.99193090    -0.09800
C767        C  0.02985614  0.52294361  0.98474426     0.29100
C768        C  0.03269756  0.47548086  0.99250903    -0.21800
C769        C  0.00389834  0.45920058  0.00757745    -0.09800
C770        C  0.97196966  0.49121893  0.01474619     0.29100
F771        F  0.94347122  0.47672177  0.02925600    -0.20300
H772        H  0.94339743  0.56202600  0.01225916     0.17400
H773        H  0.05846539  0.45206381  0.98727819     0.17400
F774        F  0.05849764  0.53768139  0.97033727    -0.20300
C775        C  0.88253286  0.73274149  0.88675137    -0.21800
C776        C  0.90472207  0.69024977  0.89237595    -0.09800
C777        C  0.90074018  0.64775260  0.88043607     0.29100
C778        C  0.87475219  0.64758735  0.86313585    -0.21800
C779        C  0.85156255  0.68956333  0.85758142    -0.09800
C780        C  0.85566608  0.73237002  0.86955275     0.29100
F781        F  0.83405457  0.77376582  0.86463035    -0.20300
H782        H  0.88505962  0.76561433  0.89600631     0.17400
H783        H  0.87239215  0.61417698  0.85421985     0.17400
F784        F  0.92229275  0.60635681  0.88546462    -0.20300
C785        C  0.87142822  0.90900880  0.98011221    -0.21800
C786        C  0.85321726  0.92622242  0.96180099    -0.09800
C787        C  0.85496468  0.89653314  0.94408603     0.29100
C788        C  0.87473798  0.85120293  0.94472333    -0.21800
C789        C  0.89348277  0.83420465  0.96284712    -0.09800
C790        C  0.89163802  0.86332943  0.98065818     0.29100
F791        F  0.91080761  0.84871797  0.99826846    -0.20300
H792        H  0.87039959  0.93106390  0.99394478     0.17400
H793        H  0.87584355  0.82948420  0.93078427     0.17400
F794        F  0.83754418  0.91087428  0.92600206    -0.20300
C795        C  0.94607816  0.23147437  0.98631666    -0.21800
C796        C  0.95667792  0.21859600  0.00656526    -0.09800
C797        C  0.94333735  0.17255677  0.01399159     0.29100
C798        C  0.91856139  0.14146392  0.00173238    -0.21800
C799        C  0.90609930  0.15551940  0.98189828    -0.09800
C800        C  0.92097478  0.20047995  0.97412518     0.29100
F801        F  0.91031887  0.21516704  0.95492592    -0.20300
H802        H  0.95662827  0.26605862  0.97996286     0.17400
H803        H  0.90718651  0.10738739  0.00825345     0.17400
F804        F  0.95348635  0.15764118  0.03322695    -0.20300
C805        C  0.84964888  0.87182552  0.80392963    -0.21800
C806        C  0.85559513  0.83814333  0.78784978    -0.09800
C807        C  0.87994991  0.85213562  0.77064489     0.29100
C808        C  0.89910351  0.89857269  0.77003964    -0.21800
C809        C  0.89405739  0.93131521  0.78652230    -0.09800
C810        C  0.86847029  0.91785308  0.80329364     0.29100
F811        F  0.86194146  0.94914734  0.81923288    -0.20300
H812        H  0.83008052  0.86269731  0.81711576     0.17400
H813        H  0.91928549  0.90815930  0.75712901     0.17400
F814        F  0.88635925  0.82061738  0.75480370    -0.20300
C815        C  0.85393847  0.07667336  0.85554594    -0.21800
C816        C  0.89813920  0.06797290  0.85670904    -0.09800
C817        C  0.91656062  0.05670704  0.87576755     0.29100
C818        C  0.89145350  0.05710028  0.89351478    -0.21800
C819        C  0.84755655  0.06692417  0.89236251    -0.09800
C820        C  0.82861381  0.07545825  0.87323291     0.29100
F821        F  0.78619109  0.08527364  0.87183534    -0.20300
H822        H  0.83915511  0.08501380  0.84095098     0.17400
H823        H  0.90635526  0.05053392  0.90824584     0.17400
F824        F  0.95913712  0.04805386  0.87740197    -0.20300
C825        C  0.83928520  0.20569592  0.77396646    -0.21800
C826        C  0.85185785  0.15972406  0.76630540    -0.09800
C827        C  0.83635172  0.14474084  0.74697254     0.29100
C828        C  0.81065065  0.17602492  0.73533573    -0.21800
C829        C  0.79933211  0.22272537  0.74268123    -0.09800
C830        C  0.81315510  0.23675577  0.76242072     0.29100
F831        F  0.80227578  0.28089361  0.77049533    -0.20300
H832        H  0.85071253  0.21832773  0.78873810     0.17400
H833        H  0.79978643  0.16362396  0.72043228     0.17400
F834        F  0.84753991  0.10082064  0.73877147    -0.20300
C835        C  0.29548673  0.58634549  0.51012460    -0.21800
C836        C  0.29218292  0.53608661  0.50570971    -0.09800
C837        C  0.31362641  0.51736700  0.48841741     0.29100
C838        C  0.34025088  0.54777672  0.47674423    -0.21800
C839        C  0.34534737  0.59764097  0.48178540    -0.09800
C840        C  0.32128089  0.61700573  0.49820283     0.29100
F841        F  0.32388204  0.66512454  0.50336806    -0.20300
H842        H  0.27805457  0.60203045  0.52291922     0.17400
H843        H  0.35816888  0.53173535  0.46419312     0.17400
F844        F  0.31032677  0.46930310  0.48326454    -0.20300
C845        C  0.40302810  0.40323472  0.58190572    -0.21800
C846        C  0.41134970  0.35365093  0.57759864    -0.09800
C847        C  0.37648721  0.32152417  0.57467036     0.29100
C848        C  0.33468885  0.33953221  0.57469624    -0.21800
C849        C  0.32685725  0.38978557  0.57726770    -0.09800
C850        C  0.36126487  0.42127745  0.58158470     0.29100
F851        F  0.35474322  0.46992223  0.58456733    -0.20300
H852        H  0.42904294  0.42884750  0.58424981     0.17400
H853        H  0.30868469  0.31463419  0.57118991     0.17400
F854        F  0.38266666  0.27333768  0.57040327    -0.20300
C855        C  0.98603716  0.21991269  0.74034103    -0.21800
C856        C  0.00460218  0.20934267  0.75933374    -0.09800
C857        C  0.02914291  0.24564707  0.76930450     0.29100
C858        C  0.03272073  0.29244185  0.76086381    -0.21800
C859        C  0.01217153  0.30374740  0.74235548    -0.09800
C860        C  0.98964872  0.26644106  0.73189403     0.29100
F861        F  0.97063732  0.27469941  0.71351617    -0.20300
H862        H  0.96690681  0.19276872  0.73237691     0.17400
H863        H  0.05183138  0.31971050  0.76876115     0.17400
F864        F  0.04901499  0.23629466  0.78737988    -0.20300
C865        C  0.12529254  0.39873107  0.61435265    -0.21800
C866        C  0.14721300  0.44064914  0.60767746    -0.09800
C867        C  0.14212526  0.48504060  0.61848079     0.29100
C868        C  0.11599601  0.48662794  0.63597681    -0.21800
C869        C  0.09550182  0.44391903  0.64283754    -0.09800
C870        C  0.09985949  0.40022645  0.63175783     0.29100
F871        F  0.07942039  0.35879488  0.63783843    -0.20300
H872        H  0.12830987  0.36421831  0.60622680     0.17400
H873        H  0.11282969  0.52056889  0.64450636     0.17400
F874        F  0.16184599  0.52661584  0.61206207    -0.20300
C875        C  0.93966088  0.58610517  0.73745623    -0.21800
C876        C  0.95272793  0.54066439  0.74531140    -0.09800
C877        C  0.93776296  0.52608546  0.76475142     0.29100
C878        C  0.91044362  0.55672471  0.77597513    -0.21800
C879        C  0.89780349  0.60238305  0.76810537    -0.09800
C880        C  0.91254714  0.61656496  0.74860614     0.29100
F881        F  0.89911942  0.65874702  0.73973110    -0.20300
H882        H  0.95032972  0.59832265  0.72249946     0.17400
H883        H  0.89857066  0.54436247  0.79070271     0.17400
F884        F  0.94880734  0.48207765  0.77278764    -0.20300
C885        C  0.88430616  0.43630781  0.67806224    -0.21800
C886        C  0.91847698  0.40359700  0.67508328    -0.09800
C887        C  0.90921104  0.35454983  0.66996013     0.29100
C888        C  0.86676773  0.33810461  0.66952101    -0.21800
C889        C  0.83287170  0.37030189  0.67379142    -0.09800
C890        C  0.84203199  0.42003425  0.67740184     0.29100
F891        F  0.81048123  0.45227065  0.68208521    -0.20300
H892        H  0.89023688  0.47427038  0.68203095     0.17400
H893        H  0.86047801  0.29964807  0.66669283     0.17400
F894        F  0.94102012  0.32175142  0.66657762    -0.20300
C895        C  0.38845225  0.89770454  0.30665413    -0.21800
C896        C  0.39576036  0.92215905  0.28804627    -0.09800
C897        C  0.38364099  0.89930827  0.26955840     0.29100
C898        C  0.36377685  0.85323392  0.26994002    -0.21800
C899        C  0.35616099  0.82934580  0.28869739    -0.09800
C900        C  0.36939172  0.85192458  0.30704058     0.29100
F901        F  0.36389355  0.83004572  0.32554807    -0.20300
H902        H  0.39787961  0.91378141  0.32117473     0.17400
H903        H  0.35373699  0.83666332  0.25561949     0.17400
F904        F  0.39121999  0.92103607  0.25120342    -0.20300
C905        C  0.31860094  0.23618325  0.26070481    -0.21800
C906        C  0.29508343  0.21581868  0.24445619    -0.09800
C907        C  0.29754002  0.16494405  0.24102306     0.29100
C908        C  0.32476220  0.13575246  0.25291665    -0.21800
C909        C  0.34993021  0.15648877  0.26858125    -0.09800
C910        C  0.34573326  0.20713958  0.27261459     0.29100
F911        F  0.36890866  0.22929150  0.28759999    -0.20300
H912        H  0.31667610  0.27505648  0.26395298     0.17400
H913        H  0.32698067  0.09701910  0.24945777     0.17400
F914        F  0.27316976  0.14322215  0.22637201    -0.20300
C915        C  0.37595900  0.85088627  0.44325867    -0.21800
C916        C  0.38672716  0.82908812  0.46200705    -0.09800
C917        C  0.37705350  0.85386786  0.48040974     0.29100
C918        C  0.35782604  0.90013400  0.47985204    -0.21800
C919        C  0.34791921  0.92220825  0.46100202    -0.09800
C920        C  0.35702352  0.89674570  0.44265964     0.29100
F921        F  0.34789542  0.91592592  0.42396437    -0.20300
H922        H  0.38288261  0.83276539  0.42882129     0.17400
H923        H  0.35050445  0.91854228  0.49416901     0.17400
F924        F  0.38692245  0.83408398  0.49887726    -0.20300
C925        C  0.26469567  0.26360815  0.51843398    -0.21800
C926        C  0.23920776  0.29899424  0.50868567    -0.09800
C927        C  0.21747219  0.28632440  0.49059059     0.29100
C928        C  0.22164462  0.23940945  0.48238984    -0.21800
C929        C  0.24743682  0.20417166  0.49201198    -0.09800
C930        C  0.26876349  0.21662675  0.51026451     0.29100
F931        F  0.29460805  0.18414220  0.51992476    -0.20300
H932        H  0.28126620  0.27212099  0.53258875     0.17400
H933        H  0.20503018  0.23088447  0.46826349     0.17400
F934        F  0.19121875  0.31861300  0.48108095    -0.20300
C935        C  0.37806120  0.10637456  0.38922643    -0.21800
C936        C  0.34795572  0.06879518  0.39259052    -0.09800
C937        C  0.34617654  0.02943535  0.37853472     0.29100
C938        C  0.37348453  0.02862183  0.36139723    -0.21800
C939        C  0.40242895  0.06709430  0.35798751    -0.09800
C940        C  0.40476040  0.10572553  0.37209377     0.29100
F941        F  0.43290446  0.14301726  0.36922667    -0.20300
H942        H  0.38069038  0.13699745  0.39975891     0.17400
H943        H  0.37119813  0.99874414  0.35046606     0.17400
F944        F  0.31805910  0.99207834  0.38121011    -0.20300
C945        C  0.41931263  0.13457065  0.49798069    -0.21800
C946        C  0.39417191  0.15608137  0.48255905    -0.09800
C947        C  0.39696398  0.20722718  0.47967198     0.29100
C948        C  0.42352929  0.23577023  0.49207967    -0.21800
C949        C  0.44775195  0.21452420  0.50779061    -0.09800
C950        C  0.44583007  0.16338463  0.51049761     0.29100
F951        F  0.46997332  0.14108030  0.52500695    -0.20300
H952        H  0.41765993  0.09550594  0.50072895     0.17400
H953        H  0.42459070  0.27496870  0.48957701     0.17400
F954        F  0.37288579  0.23034705  0.46536048    -0.20300
C955        C  0.52124377  0.24034209  0.26829659    -0.21800
C956        C  0.49939429  0.20266016  0.25792196    -0.09800
C957        C  0.48173398  0.21216742  0.23853148     0.29100
C958        C  0.48430374  0.25896145  0.23023384    -0.21800
C959        C  0.50499892  0.29708636  0.24086429    -0.09800
C960        C  0.52415258  0.28709572  0.25989885     0.29100
F961        F  0.54612914  0.32208222  0.27033018    -0.20300
H962        H  0.53523842  0.23402623  0.28325896     0.17400
H963        H  0.47026457  0.26515431  0.21527343     0.17400
F964        F  0.46074446  0.17688145  0.22780993    -0.20300
C965        C  0.43360733  0.57917266  0.23500941    -0.21800
C966        C  0.44701545  0.53361605  0.24263856    -0.09800
C967        C  0.43402188  0.51984536  0.26254035     0.29100
C968        C  0.40784270  0.55082016  0.27425491    -0.21800
C969        C  0.39454536  0.59637918  0.26657746    -0.09800
C970        C  0.40784676  0.61024357  0.24676239     0.29100
F971        F  0.39431686  0.65277990  0.23822801    -0.20300
H972        H  0.44310448  0.59101333  0.21982310     0.17400
H973        H  0.39738663  0.53878089  0.28927109     0.17400
F974        F  0.44601395  0.47624826  0.27064800    -0.20300
C975        C  0.40672404  0.33941278  0.17097369    -0.21800
C976        C  0.41539059  0.38989283  0.17045192    -0.09800
C977        C  0.38125529  0.42274463  0.16782235     0.29100
C978        C  0.33911832  0.40580353  0.16843289    -0.21800
C979        C  0.33031442  0.35589936  0.17165789    -0.09800
C980        C  0.36454767  0.32240826  0.17155805     0.29100
F981        F  0.35750864  0.27355624  0.17349527    -0.20300
H982        H  0.43247507  0.31324544  0.17264162     0.17400
H983        H  0.31346204  0.43236506  0.16792520     0.17400
F984        F  0.38846911  0.47159690  0.16601690    -0.20300
C985        C  0.78236559  0.27222917  0.01769459    -0.21800
C986        C  0.75415300  0.30593879  0.00873982    -0.09800
C987        C  0.72974702  0.29170727  0.99164208     0.29100
C988        C  0.73348948  0.24462914  0.98377103    -0.21800
C989        C  0.76165449  0.21087612  0.99265151    -0.09800
C990        C  0.78626301  0.22502108  0.00971311     0.29100
F991        F  0.81500908  0.19401154  0.01827782    -0.20300
H992        H  0.80101332  0.28224584  0.03106165     0.17400
H993        H  0.71448445  0.23468753  0.97051323     0.17400
F994        F  0.70082102  0.32238495  0.98300249    -0.20300
C995        C  0.63642393  0.39236802  0.11507010    -0.21800
C996        C  0.64727237  0.43722478  0.10604480    -0.09800
C997        C  0.62989561  0.48077904  0.11400993     0.29100
C998        C  0.60289836  0.47915752  0.13121866    -0.21800
C999        C  0.59358313  0.43418466  0.14071315    -0.09800
C1000       C  0.61011434  0.39072480  0.13225778     0.29100
F1001       F  0.60057998  0.34639244  0.14050328    -0.20300
H1002       H  0.64889845  0.35834265  0.10892951     0.17400
H1003       H  0.59014727  0.51297489  0.13740552     0.17400
F1004       F  0.63814073  0.52444577  0.10490698    -0.20300
C1005       C  0.85501643  0.55001261  0.98103926    -0.21800
C1006       C  0.85269393  0.60144101  0.98216316    -0.09800
C1007       C  0.82325377  0.62283602  0.99589725     0.29100
C1008       C  0.79820891  0.59325574  0.00873225    -0.21800
C1009       C  0.80156401  0.54198855  0.00789950    -0.09800
C1010       C  0.82969801  0.52059528  0.99366865     0.29100
F1011       F  0.83377558  0.47116929  0.99243795    -0.20300
H1012       H  0.87775293  0.53228874  0.97091068     0.17400
H1013       H  0.77567420  0.61040721  0.01914201     0.17400
F1014       F  0.81902599  0.67223015  0.99715030    -0.20300
C1015       C  0.86657781  0.43264266  0.07964933    -0.21800
C1016       C  0.83237883  0.39932608  0.07902506    -0.09800
C1017       C  0.84124325  0.34874724  0.07972012     0.29100
C1018       C  0.88351651  0.33224771  0.07894822    -0.21800
C1019       C  0.91762198  0.36569639  0.07777700    -0.09800
C1020       C  0.90877337  0.41618679  0.07909668     0.29100
F1021       F  0.94055441  0.45000477  0.07805942    -0.20300
H1022       H  0.86069345  0.47171827  0.07926390     0.17400
H1023       H  0.88942812  0.29320380  0.07815605     0.17400
F1024       F  0.80925647  0.31507397  0.07937610    -0.20300
C1025       C  0.19075551  0.48757783  0.01338238    -0.21800
C1026       C  0.20434461  0.47180500  0.99385195    -0.09800
C1027       C  0.19135727  0.42523924  0.98687213     0.29100
C1028       C  0.16499676  0.39584094  0.99900010    -0.21800
C1029       C  0.15028136  0.41217173  0.01821373    -0.09800
C1030       C  0.16374422  0.45834440  0.02540161     0.29100
F1031       F  0.15039168  0.47557531  0.04388336    -0.20300
H1032       H  0.20057557  0.52297262  0.01928794     0.17400
H1033       H  0.15459609  0.36088046  0.99286510     0.17400
F1034       F  0.20377097  0.40793673  0.96825248    -0.20300
C1035       C  0.13479707  0.58187382  0.92314683    -0.21800
C1036       C  0.16896593  0.61528582  0.92385752    -0.09800
C1037       C  0.16021540  0.66578066  0.92267779     0.29100
C1038       C  0.11803684  0.68228745  0.92243614    -0.21800
C1039       C  0.08384798  0.64897871  0.92326690    -0.09800
C1040       C  0.09259217  0.59839440  0.92275708     0.29100
F1041       F  0.06059742  0.56479105  0.92362837    -0.20300
H1042       H  0.14064524  0.54283053  0.92398590     0.17400
H1043       H  0.11216319  0.72137638  0.92277236     0.17400
F1044       F  0.19211112  0.69950415  0.92348212    -0.20300
C1045       C  0.37846991  0.62172730  0.86354339    -0.21800
C1046       C  0.39809823  0.57855154  0.85652220    -0.09800
C1047       C  0.39028901  0.53432527  0.86692840     0.29100
C1048       C  0.36401275  0.53378652  0.88434362    -0.21800
C1049       C  0.34607178  0.57743364  0.89175898    -0.09800
C1050       C  0.35298386  0.62131607  0.88109133     0.29100
F1051       F  0.33488590  0.66379965  0.88761520    -0.20300
H1052       H  0.38355625  0.65613891  0.85567499     0.17400
H1053       H  0.35882275  0.49968192  0.89242606     0.17400
F1054       F  0.40771308  0.49169337  0.86021133    -0.20300
C1055       C  0.59470990  0.45981360  0.72776758    -0.21800
C1056       C  0.60078230  0.41030304  0.73284150    -0.09800
C1057       C  0.57920039  0.39135495  0.75013242     0.29100
C1058       C  0.55372455  0.42194053  0.76236806    -0.21800
C1059       C  0.54884405  0.47177685  0.75757614    -0.09800
C1060       C  0.56912348  0.49019805  0.73990111     0.29100
F1061       F  0.56542283  0.53806585  0.73462211    -0.20300
H1062       H  0.61110217  0.47574416  0.71473741     0.17400
H1063       H  0.53769573  0.40652595  0.77561320     0.17400
F1064       F  0.58375490  0.34377283  0.75570712    -0.20300
C1065       C  0.63382346  0.68444386  0.82815477    -0.21800
C1066       C  0.66800982  0.65114428  0.82825680    -0.09800
C1067       C  0.65906717  0.60072576  0.83006764     0.29100
C1068       C  0.61681830  0.58407992  0.82996144    -0.21800
C1069       C  0.58274145  0.61719216  0.82829474    -0.09800
C1070       C  0.59158389  0.66782249  0.82823956     0.29100
F1071       F  0.55974879  0.70128341  0.82647024    -0.20300
H1072       H  0.63972633  0.72341983  0.82682493     0.17400
H1073       H  0.61085263  0.54498390  0.83009682     0.17400
F1074       F  0.69095211  0.56707444  0.83029617    -0.20300
C1075       C  0.65136757  0.11927225  0.55380969    -0.21800
C1076       C  0.64341843  0.08459958  0.53829749    -0.09800
C1077       C  0.61810479  0.09804324  0.52140220     0.29100
C1078       C  0.59993069  0.14490662  0.52056793    -0.21800
C1079       C  0.60685847  0.17867254  0.53652884    -0.09800
C1080       C  0.63343910  0.16574277  0.55295988     0.29100
F1081       F  0.64151240  0.19786520  0.56843812    -0.20300
H1082       H  0.67167105  0.11048361  0.56673270     0.17400
H1083       H  0.57880920  0.15396531  0.50798617     0.17400
F1084       F  0.60958085  0.06548762  0.50617450    -0.20300
C1085       C  0.59052796  0.79902553  0.52407333    -0.21800
C1086       C  0.59572238  0.84902487  0.51953017    -0.09800
C1087       C  0.57348760  0.86861156  0.50261931     0.29100
C1088       C  0.54740320  0.83856872  0.49051976    -0.21800
C1089       C  0.54265914  0.78856829  0.49498911    -0.09800
C1090       C  0.56435746  0.76908431  0.51199348     0.29100
F1091       F  0.56153550  0.72069655  0.51654560    -0.20300
H1092       H  0.60788512  0.78252210  0.53664646     0.17400
H1093       H  0.53071717  0.85457826  0.47762319     0.17400
F1094       F  0.57798765  0.91635709  0.49724453    -0.20300
C1095       C  0.61036160  0.11597380  0.73242779    -0.21800
C1096       C  0.61126754  0.08492519  0.71525322    -0.09800
C1097       C  0.63250729  0.09999099  0.69734853     0.29100
C1098       C  0.65071550  0.14614934  0.69631986    -0.21800
C1099       C  0.64873765  0.17815152  0.71316395    -0.09800
C1100       C  0.62903705  0.16245814  0.73144573     0.29100
F1101       F  0.62683980  0.19224222  0.74811871    -0.20300
H1102       H  0.59366743  0.10510513  0.74626570     0.17400
H1103       H  0.66667424  0.15662633  0.68222852     0.17400
F1104       F  0.63520633  0.07032111  0.68064844    -0.20300
C1105       C  0.49310550  0.76678350  0.73169377    -0.21800
C1106       C  0.50711565  0.80608683  0.74403802    -0.09800
C1107       C  0.52145435  0.79656725  0.76401340     0.29100
C1108       C  0.52071521  0.74892262  0.77153122    -0.21800
C1109       C  0.50528072  0.70992524  0.75941984    -0.09800
C1110       C  0.49245740  0.71914955  0.73919296     0.29100
F1111       F  0.47831954  0.68255178  0.72678180    -0.20300
H1112       H  0.48315245  0.77264662  0.71597961     0.17400
H1113       H  0.53066644  0.74302364  0.78724206     0.17400
F1114       F  0.53601274  0.83307021  0.77635399    -0.20300
C1115       C  0.62030178  0.98166402  0.63945816    -0.21800
C1116       C  0.59637744  0.94048602  0.64521184    -0.09800
C1117       C  0.59782228  0.89800770  0.63312514     0.29100
C1118       C  0.62270940  0.89684885  0.61540888    -0.21800
C1119       C  0.64738491  0.93766881  0.60961696    -0.09800
C1120       C  0.64620310  0.98019353  0.62191425     0.29100
F1121       F  0.66971215  0.02030317  0.61698505    -0.20300
H1122       H  0.61972817  0.01443891  0.64882899     0.17400
H1123       H  0.62296071  0.86357667  0.60631534     0.17400
F1124       F  0.57473316  0.85774963  0.63837229    -0.20300
C1125       C  0.66137010  0.86987824  0.75505035    -0.21800
C1126       C  0.65025340  0.85737247  0.73484100    -0.09800
C1127       C  0.66720168  0.81442979  0.72614076     0.29100
C1128       C  0.69379679  0.78401046  0.73774006    -0.21800
C1129       C  0.70357301  0.79556517  0.75827471    -0.09800
C1130       C  0.68744601  0.83938370  0.76671276     0.29100
F1131       F  0.69614900  0.85268932  0.78635439    -0.20300
H1132       H  0.64816532  0.90232193  0.76225458     0.17400
H1133       H  0.70638913  0.75109946  0.73067415     0.17400
F1134       F  0.65775988  0.80164966  0.70652416    -0.20300
C1135       C  0.72626047  0.73916995  0.48374273    -0.21800
C1136       C  0.75328064  0.70501112  0.49328718    -0.09800
C1137       C  0.77442454  0.71835319  0.51146592     0.29100
C1138       C  0.76895719  0.76518465  0.51966809    -0.21800
C1139       C  0.74230280  0.79956774  0.50998563    -0.09800
C1140       C  0.72069005  0.78591438  0.49196603     0.29100
F1141       F  0.69325689  0.81704204  0.48254087    -0.20300
H1142       H  0.70968970  0.72987853  0.46967949     0.17400
H1143       H  0.78546371  0.77442023  0.53375740     0.17400
F1144       F  0.80151389  0.68695615  0.52096801    -0.20300
C1145       C  0.68088208  0.48653963  0.51286490    -0.21800
C1146       C  0.69585371  0.47057787  0.49360750    -0.09800
C1147       C  0.68297130  0.42412750  0.48640561     0.29100
C1148       C  0.65590245  0.39474024  0.49815837    -0.21800
C1149       C  0.64030430  0.41088424  0.51722802    -0.09800
C1150       C  0.65304277  0.45731128  0.52449344     0.29100
F1151       F  0.63843267  0.47468061  0.54272838    -0.20300
H1152       H  0.69040708  0.52192948  0.51887305     0.17400
H1153       H  0.64599695  0.35971811  0.49190989     0.17400
F1154       F  0.69645290  0.40669874  0.46797317    -0.20300
C1155       C  0.63411138  0.58085117  0.42269901    -0.21800
C1156       C  0.66799434  0.61445580  0.42454380    -0.09800
C1157       C  0.65865327  0.66475759  0.42555835     0.29100
C1158       C  0.61612260  0.68054355  0.42620239    -0.21800
C1159       C  0.58219766  0.64659907  0.42577108    -0.09800
C1160       C  0.59169820  0.59652861  0.42332003     0.29100
F1161       F  0.56028368  0.56215645  0.42309327    -0.20300
H1162       H  0.64040918  0.54187029  0.42194649     0.17400
H1163       H  0.60981289  0.71928907  0.42810806     0.17400
F1164       F  0.69034707  0.69839635  0.42769316    -0.20300
C1165       C  0.91616217  0.55052603  0.37678819    -0.21800
C1166       C  0.89809221  0.56431804  0.35798425    -0.09800
C1167       C  0.85424770  0.57569796  0.35708524     0.29100
C1168       C  0.82920265  0.57425334  0.37480834    -0.21800
C1169       C  0.84770707  0.56278219  0.39369684    -0.09800
C1170       C  0.89126059  0.55050688  0.39465007     0.29100
F1171       F  0.90964914  0.53909414  0.41286998    -0.20300
H1172       H  0.94985816  0.54169327  0.37776866     0.17400
H1173       H  0.79568082  0.58400797  0.37394439     0.17400
F1174       F  0.83568871  0.58852759  0.33907224    -0.20300
C1175       C  0.04214802  0.41790495  0.25813963    -0.21800
C1176       C  0.04465325  0.46917793  0.25672734    -0.09800
C1177       C  0.07347073  0.49033468  0.24284160     0.29100
C1178       C  0.10068280  0.46063449  0.23124895    -0.21800
C1179       C  0.09952650  0.40922554  0.23316441    -0.09800
C1180       C  0.06907570  0.38805289  0.24638300     0.29100
F1181       F  0.06591375  0.33869362  0.24835409    -0.20300
H1182       H  0.01925876  0.40092769  0.26840354     0.17400
H1183       H  0.12399777  0.47820245  0.22140418     0.17400
F1184       F  0.07685041  0.53976332  0.24123898    -0.20300
C1185       C  0.11443784  0.57516073  0.32750603    -0.21800
C1186       C  0.08041926  0.60876910  0.32794057    -0.09800
C1187       C  0.08970934  0.65892388  0.33037384     0.29100
C1188       C  0.13213463  0.67515362  0.33049240    -0.21800
C1189       C  0.16606697  0.64183557  0.32839710    -0.09800
C1190       C  0.15683257  0.59134190  0.32777027     0.29100
F1191       F  0.18843933  0.55769533  0.32556845    -0.20300
H1192       H  0.10830420  0.53631678  0.32574509     0.17400
H1193       H  0.13835796  0.71416715  0.33109126     0.17400
F1194       F  0.05800685  0.69277774  0.33098577    -0.20300
C1195       C  0.12382428  0.15645299  0.19550531    -0.21800
C1196       C  0.14065495  0.17440117  0.21396293    -0.09800
C1197       C  0.13896119  0.14475415  0.23159268     0.29100
C1198       C  0.11962282  0.09837480  0.23063814    -0.21800
C1199       C  0.10268480  0.08073548  0.21203728    -0.09800
C1200       C  0.10566632  0.11026505  0.19438951     0.29100
F1201       F  0.09064891  0.09515010  0.17588453    -0.20300
H1202       H  0.12519703  0.17808350  0.18160092     0.17400
H1203       H  0.11806765  0.07623863  0.24438345     0.17400
F1204       F  0.15713361  0.15969204  0.24944631    -0.20300
C1205       C  0.01870568  0.74047890  0.26769100    -0.21800
C1206       C  0.99015310  0.70646693  0.25908961    -0.09800
C1207       C  0.96474608  0.72058504  0.24230368     0.29100
C1208       C  0.96906988  0.76735724  0.23398958    -0.21800
C1209       C  0.99829715  0.80094982  0.24237152    -0.09800
C1210       C  0.02279254  0.78727894  0.25948371     0.29100
F1211       F  0.05232884  0.81810621  0.26766832    -0.20300
H1212       H  0.03803953  0.73080456  0.28084860     0.17400
H1213       H  0.95002349  0.77708847  0.22073774     0.17400
F1214       F  0.93498355  0.68985354  0.23423238    -0.20300
C1215       C  0.18041441  0.82964686  0.26729471    -0.21800
C1216       C  0.19918951  0.78800330  0.25836160    -0.09800
C1217       C  0.19172774  0.77849996  0.23735455     0.29100
C1218       C  0.16518537  0.80921396  0.22590364    -0.21800
C1219       C  0.14616974  0.85048311  0.23492792    -0.09800
C1220       C  0.15431471  0.86064301  0.25576460     0.29100
F1221       F  0.13517957  0.89898279  0.26537140    -0.20300
H1222       H  0.18563562  0.83815860  0.28333610     0.17400
H1223       H  0.15897561  0.80030770  0.20997584     0.17400
F1224       F  0.20988118  0.73952101  0.22776817    -0.20300
C1225       C  0.14217632  0.11352383  0.05665123    -0.21800
C1226       C  0.14679303  0.08698172  0.03828694    -0.09800
C1227       C  0.13303055  0.10835041  0.01979941     0.29100
C1228       C  0.11431453  0.15500586  0.01996963    -0.21800
C1229       C  0.10932735  0.18092921  0.03850156    -0.09800
C1230       C  0.12413750  0.15985235  0.05680282     0.29100
F1231       F  0.12115692  0.18382133  0.07502942    -0.20300
H1232       H  0.15297351  0.09868517  0.07113800     0.17400
H1233       H  0.10284744  0.17033050  0.00569555     0.17400
F1234       F  0.13758127  0.08444548  0.00164528    -0.20300
C1235       C  0.28108573  0.72428751  0.00847883    -0.21800
C1236       C  0.25289289  0.70713386  0.99338834    -0.09800
C1237       C  0.21999971  0.73790090  0.98634161     0.29100
C1238       C  0.21617737  0.78542334  0.99401706    -0.21800
C1239       C  0.24494638  0.80288822  0.00882081    -0.09800
C1240       C  0.27727028  0.77172691  0.01614653     0.29100
F1241       F  0.30546907  0.78726313  0.03058817    -0.20300
H1242       H  0.30732395  0.70169135  0.01371965     0.17400
H1243       H  0.18997470  0.80810202  0.98879478     0.17400
F1244       F  0.19170907  0.72210263  0.97198333    -0.20300
C1245       C  0.13336665  0.98054786  0.11493037    -0.21800
C1246       C  0.15595199  0.93873403  0.10874912    -0.09800
C1247       C  0.15267394  0.89549388  0.12017608     0.29100
C1248       C  0.12684445  0.89383771  0.13751731    -0.21800
C1249       C  0.10308596  0.93498037  0.14354839    -0.09800
C1250       C  0.10658277  0.97864694  0.13215292     0.29100
F1251       F  0.08430295  0.01929408  0.13761147    -0.20300
H1252       H  0.13530727  0.01392455  0.10602353     0.17400
H1253       H  0.12475764  0.85984889  0.14599331     0.17400
F1254       F  0.17440372  0.85465038  0.11444945    -0.20300
C1255       C  0.05301317  0.84137554  0.98975374    -0.21800
C1256       C  0.04777331  0.79164409  0.99461034    -0.09800
C1257       C  0.06709596  0.77337168  0.01250612     0.29100
C1258       C  0.09271463  0.80385139  0.02465044    -0.21800
C1259       C  0.09921938  0.85327668  0.01939940    -0.09800
C1260       C  0.07804954  0.87204490  0.00204906     0.29100
F1261       F  0.08282835  0.91953891  0.99636563    -0.20300
H1262       H  0.03757846  0.85671618  0.97637574     0.17400
H1263       H  0.10872646  0.78818153  0.03779997     0.17400
F1264       F  0.06246101  0.72568838  0.01795095    -0.20300
C1265       C  0.10811729  0.65045666  0.52132266    -0.21800
C1266       C  0.10836351  0.67881683  0.53935024    -0.09800
C1267       C  0.12845669  0.66050980  0.55695544     0.29100
C1268       C  0.14625674  0.61404839  0.55677103    -0.21800
C1269       C  0.14498647  0.58472512  0.53900179    -0.09800
C1270       C  0.12634549  0.60366753  0.52109072     0.29100
F1271       F  0.12500531  0.57689718  0.50353683    -0.20300
H1272       H  0.09239727  0.66373760  0.50763413     0.17400
H1273       H  0.16127197  0.60120817  0.57071944     0.17400
F1274       F  0.13069695  0.68730554  0.57448271    -0.20300
C1275       C  0.17625902  0.98970032  0.51053748    -0.21800
C1276       C  0.19337858  0.97067697  0.49218327    -0.09800
C1277       C  0.18386877  0.92195213  0.48677982     0.29100
C1278       C  0.15797634  0.89318956  0.49943323    -0.21800
C1279       C  0.14029078  0.91226939  0.51762722    -0.09800
C1280       C  0.14966651  0.96110527  0.52305022     0.29100
F1281       F  0.13292866  0.98149263  0.54029779    -0.20300
H1282       H  0.18320121  0.02700638  0.51515971     0.17400
H1283       H  0.15076057  0.85612108  0.49458462     0.17400
F1284       F  0.19998617  0.90161390  0.46939407    -0.20300
C1285       C  0.91728234  0.63308014  0.50268928    -0.21800
C1286       C  0.90208501  0.64960839  0.48361370    -0.09800
C1287       C  0.91503510  0.69611532  0.47667931     0.29100
C1288       C  0.94033958  0.72624285  0.48907618    -0.21800
C1289       C  0.95341005  0.71098603  0.50868106    -0.09800
C1290       C  0.94260064  0.66331713  0.51513633     0.29100
F1291       F  0.95589501  0.64596784  0.53354699    -0.20300
H1292       H  0.90780533  0.59754147  0.50850068     0.17400
H1293       H  0.94901246  0.76216484  0.48339555     0.17400
F1294       F  0.90214026  0.71333020  0.45818180    -0.20300
C1295       C  0.90479159  0.90893248  0.57954342    -0.21800
C1296       C  0.91264976  0.85828960  0.57850449    -0.09800
C1297       C  0.87760524  0.82583150  0.57872513     0.29100
C1298       C  0.83579781  0.84397565  0.57875585    -0.21800
C1299       C  0.82805912  0.89466475  0.57820005    -0.09800
C1300       C  0.86306384  0.92705890  0.57920374     0.29100
F1301       F  0.85720113  0.97631392  0.57881701    -0.20300
H1302       H  0.93103790  0.93486365  0.57927698     0.17400
H1303       H  0.80950302  0.81818679  0.57785796     0.17400
F1304       F  0.88356079  0.77663097  0.57785416    -0.20300
C1305       C  0.14427198  0.65603987  0.73163286    -0.21800
C1306       C  0.14584032  0.68317716  0.71332892    -0.09800
C1307       C  0.12678688  0.66395202  0.69555343     0.29100
C1308       C  0.10780322  0.61816744  0.69592222    -0.21800
C1309       C  0.10668039  0.59025876  0.71399829    -0.09800
C1310       C  0.12473878  0.60977058  0.73202456     0.29100
F1311       F  0.12409365  0.58414526  0.74983490    -0.20300
H1312       H  0.15920385  0.66999631  0.74544881     0.17400
H1313       H  0.09360281  0.60481337  0.68182464     0.17400
F1314       F  0.12658267  0.68921468  0.67762373    -0.20300
C1315       C  0.14141435  0.78232806  0.63329748    -0.21800
C1316       C  0.15270596  0.82711399  0.64247496    -0.09800
C1317       C  0.13686701  0.87097973  0.63416583     0.29100
C1318       C  0.11012146  0.86996698  0.61712354    -0.21800
C1319       C  0.09783148  0.82533254  0.60823868    -0.09800
C1320       C  0.11366592  0.78133072  0.61642253     0.29100
F1321       F  0.10302689  0.73764518  0.60788941    -0.20300
H1322       H  0.15322336  0.74815198  0.63949707     0.17400
H1323       H  0.09855966  0.90430332  0.61095785     0.17400
F1324       F  0.14769774  0.91506146  0.64235859    -0.20300
C1325       C  0.09108818  0.89712383  0.75231332    -0.21800
C1326       C  0.10567191  0.91331738  0.73307579    -0.09800
C1327       C  0.09276454  0.95972199  0.72608937     0.29100
C1328       C  0.06649587  0.98933357  0.73829270    -0.21800
C1329       C  0.05283106  0.97365080  0.75778183    -0.09800
C1330       C  0.06522195  0.92686431  0.76460053     0.29100
F1331       F  0.05257516  0.90963110  0.78316501    -0.20300
H1332       H  0.10107853  0.86197987  0.75828851     0.17400
H1333       H  0.05708150  0.02484183  0.73248751     0.17400
F1334       F  0.10594884  0.97687537  0.70759749    -0.20300
C1335       C  0.32622384  0.74668036  0.75831509    -0.21800
C1336       C  0.30212123  0.72541250  0.74249636    -0.09800
C1337       C  0.30324279  0.67426577  0.73983661     0.29100
C1338       C  0.32972498  0.64546003  0.75215145    -0.21800
C1339       C  0.35550831  0.66697895  0.76737418    -0.09800
C1340       C  0.35275203  0.71801790  0.77060397     0.29100
F1341       F  0.37675109  0.74078379  0.78512120    -0.20300
H1342       H  0.32520873  0.78587640  0.76091636     0.17400
H1343       H  0.33091001  0.60636126  0.74935024     0.17400
F1344       F  0.27829172  0.65195720  0.72556303    -0.20300
C1345       C  0.34196813  0.91917959  0.67241313    -0.21800
C1346       C  0.33433062  0.86849065  0.67156342    -0.09800
C1347       C  0.36929415  0.83642231  0.66981797     0.29100
C1348       C  0.41097720  0.85455526  0.67108885    -0.21800
C1349       C  0.41849682  0.90479382  0.67428166    -0.09800
C1350       C  0.38361657  0.93729717  0.67388549     0.29100
F1351       F  0.38939757  0.98628741  0.67622083    -0.20300
H1352       H  0.31561996  0.94473071  0.67364306     0.17400
H1353       H  0.43721762  0.82871552  0.67102487     0.17400
F1354       F  0.36326127  0.78730609  0.66818366    -0.20300
C1355       C  0.39687610  0.36412173  0.97997835    -0.21800
C1356       C  0.39373500  0.33307116  0.96280683    -0.09800
C1357       C  0.37207226  0.34952946  0.94527138     0.29100
C1358       C  0.35419933  0.39602238  0.94489867    -0.21800
C1359       C  0.35729339  0.42745190  0.96194754    -0.09800
C1360       C  0.37892048  0.41115172  0.97956954     0.29100
F1361       F  0.38350873  0.44081066  0.99616570    -0.20300
H1362       H  0.41447462  0.35262922  0.99341817     0.17400
H1363       H  0.33735454  0.40709545  0.93117313     0.17400
F1364       F  0.36817872  0.32070482  0.92834895    -0.20300
C1365       C  0.58655449  0.36936966  0.99890693    -0.21800
C1366       C  0.60545732  0.35087918  0.01682394    -0.09800
C1367       C  0.59577420  0.30257881  0.02287279     0.29100
C1368       C  0.56834964  0.27357465  0.01103215    -0.21800
C1369       C  0.55044019  0.29168805  0.99280616    -0.09800
C1370       C  0.55956936  0.34018939  0.98695155     0.29100
F1371       F  0.54238508  0.35970747  0.96970931    -0.20300
H1372       H  0.59377998  0.40610232  0.99369055     0.17400
H1373       H  0.56161856  0.23652760  0.01601443     0.17400
F1374       F  0.61337565  0.28286053  0.03998609    -0.20300
C1375       C  0.61888112  0.18613768  0.92392508    -0.21800
C1376       C  0.58523812  0.15198695  0.92235575    -0.09800
C1377       C  0.59525696  0.10238814  0.91891539     0.29100
C1378       C  0.63778931  0.08693936  0.91928773    -0.21800
C1379       C  0.67107220  0.12049462  0.92286510    -0.09800
C1380       C  0.66145253  0.17067388  0.92414072     0.29100
F1381       F  0.69264221  0.20431843  0.92761429    -0.20300
H1382       H  0.61223316  0.22462840  0.92639027     0.17400
H1383       H  0.64452483  0.04814355  0.91799508     0.17400
F1384       F  0.56407485  0.06810139  0.91685929    -0.20300
C1385       C  0.34334736  0.05255576  0.97611825    -0.21800
C1386       C  0.35406596  0.09980200  0.98314136    -0.09800
C1387       C  0.33647722  0.11628557  0.00182748     0.29100
C1388       C  0.30960760  0.08596813  0.01326561    -0.21800
C1389       C  0.29928729  0.03856682  0.00643763    -0.09800
C1390       C  0.31603791  0.02226550  0.98754340     0.29100
F1391       F  0.30703296  0.97671787  0.98032345    -0.20300
H1392       H  0.35688687  0.03858803  0.96197248     0.17400
H1393       H  0.29693770  0.09978874  0.02762160     0.17400
F1394       F  0.34674875  0.16086252  0.00968939    -0.20300
C1395       C  0.37315444  0.35715174  0.77167450    -0.21800
C1396       C  0.35203692  0.34215860  0.78964178    -0.09800
C1397       C  0.34921182  0.37485991  0.80636167     0.29100
C1398       C  0.36830972  0.42065224  0.80528476    -0.21800
C1399       C  0.39067748  0.43501718  0.78766630    -0.09800
C1400       C  0.39255918  0.40328147  0.77067845     0.29100
F1401       F  0.41506067  0.41563712  0.75363310    -0.20300
H1402       H  0.37535960  0.33282982  0.75856010     0.17400
H1403       H  0.36641890  0.44465188  0.81853414     0.17400
F1404       F  0.32788462  0.36299124  0.82382977    -0.20300
C1405       C  0.27870210  0.99826097  0.73248994    -0.21800
C1406       C  0.25147370  0.96315193  0.74135168    -0.09800
C1407       C  0.22717646  0.97610386  0.75870859     0.29100
C1408       C  0.22974862  0.02326423  0.76678942    -0.21800
C1409       C  0.25679628  0.05851654  0.75795485    -0.09800
C1410       C  0.28166777  0.04543286  0.74075796     0.29100
F1411       F  0.30976699  0.07751113  0.73227354    -0.20300
H1412       H  0.29745449  0.98930824  0.71900235     0.17400
H1413       H  0.21074111  0.03202528  0.78021237     0.17400
F1414       F  0.19958293  0.94391554  0.76749070    -0.20300
C1415       C  0.39252034  0.23086945  0.88379873    -0.21800
C1416       C  0.39964361  0.18622945  0.89397489    -0.09800
C1417       C  0.37863598  0.14375003  0.88691504     0.29100
C1418       C  0.35202892  0.14581278  0.86983354    -0.21800
C1419       C  0.34494097  0.19019916  0.85967233    -0.09800
C1420       C  0.36500450  0.23300695  0.86684947     0.29100
F1421       F  0.35945685  0.27625405  0.85698727    -0.20300
H1422       H  0.40802722  0.26410544  0.88904639     0.17400
H1423       H  0.33697475  0.11242333  0.86442493     0.17400
F1424       F  0.38449431  0.09978831  0.89618009    -0.20300
C1425       C  0.16636598  0.37415494  0.75247387    -0.21800
C1426       C  0.15387964  0.35918369  0.73271965    -0.09800
C1427       C  0.16780810  0.31344383  0.72535097     0.29100
C1428       C  0.19265940  0.28297211  0.73777042    -0.21800
C1429       C  0.20370381  0.29714419  0.75785593    -0.09800
C1430       C  0.19059278  0.34351714  0.76499423     0.29100
F1431       F  0.20062755  0.35935066  0.78415743    -0.20300
H1432       H  0.15549238  0.40875997  0.75874075     0.17400
H1433       H  0.20282295  0.24789968  0.73170476     0.17400
F1434       F  0.15670825  0.29769023  0.70631980    -0.20300
C1435       C  0.08790791  0.16926077  0.83000528    -0.21800
C1436       C  0.07997755  0.11858823  0.82946229    -0.09800
C1437       C  0.11475183  0.08614944  0.83093064     0.29100
C1438       C  0.15655727  0.10395372  0.83079983    -0.21800
C1439       C  0.16469722  0.15435609  0.82905629    -0.09800
C1440       C  0.12991708  0.18715336  0.82975859     0.29100
F1441       F  0.13628498  0.23632509  0.82899531    -0.20300
H1442       H  0.06171483  0.19504735  0.82906380     0.17400
H1443       H  0.18255719  0.07781626  0.83056778     0.17400
F1444       F  0.10855763  0.03692387  0.83113056    -0.20300
C1445       C  0.40776564  0.05965231  0.77678781    -0.21800
C1446       C  0.40136486  0.10885043  0.77121390    -0.09800
C1447       C  0.42425514  0.12759225  0.75430633     0.29100
C1448       C  0.45045346  0.09683200  0.74256410    -0.21800
C1449       C  0.45505157  0.04705534  0.74754344    -0.09800
C1450       C  0.43447580  0.02913228  0.76522503     0.29100
F1451       F  0.43870885  0.98161564  0.77093566    -0.20300
H1452       H  0.39070630  0.04406550  0.78969530     0.17400
H1453       H  0.46699629  0.11201208  0.72941621     0.17400
F1454       F  0.41995521  0.17502182  0.74846702    -0.20300
C1455       C  0.60830476  0.60541476  0.22974765    -0.21800
C1456       C  0.60108708  0.58105399  0.21102421    -0.09800
C1457       C  0.61346593  0.60394304  0.19262148     0.29100
C1458       C  0.63238281  0.64985268  0.19297837    -0.21800
C1459       C  0.64025833  0.67420646  0.21159364    -0.09800
C1460       C  0.62779392  0.65171959  0.23008578     0.29100
F1461       F  0.63488796  0.67392203  0.24842340    -0.20300
H1462       H  0.59847319  0.58888299  0.24408870     0.17400
H1463       H  0.64167168  0.66589433  0.17845038     0.17400
F1464       F  0.60772678  0.58199083  0.17409807    -0.20300
C1465       C  0.57339896  0.98894769  0.24025211    -0.21800
C1466       C  0.54967946  0.96793252  0.25630294    -0.09800
C1467       C  0.55194717  0.91695608  0.25924290     0.29100
C1468       C  0.57829716  0.88805387  0.24676302    -0.21800
C1469       C  0.60339995  0.90916540  0.23117379    -0.09800
C1470       C  0.60028832  0.96016570  0.22792815     0.29100
F1471       F  0.62418093  0.98271475  0.21332339    -0.20300
H1472       H  0.57183911  0.02802909  0.23752482     0.17400
H1473       H  0.58000411  0.84911559  0.24978408     0.17400
F1474       F  0.52819149  0.89479048  0.27400006    -0.20300
C1475       C  0.81142305  0.73196048  0.26270120    -0.21800
C1476       C  0.79478516  0.71373796  0.24417268    -0.09800
C1477       C  0.80320583  0.66477562  0.23868193     0.29100
C1478       C  0.82862049  0.63541160  0.25121693    -0.21800
C1479       C  0.84671280  0.65417938  0.26934467    -0.09800
C1480       C  0.83731091  0.70275884  0.27512046     0.29100
F1481       F  0.85408536  0.72269928  0.29243272    -0.20300
H1482       H  0.80507781  0.76931566  0.26743132     0.17400
H1483       H  0.83563906  0.59843710  0.24619016     0.17400
F1484       F  0.78706988  0.64506708  0.22118102    -0.20300
C1485       C  0.84381111  0.90223557  0.16863035    -0.21800
C1486       C  0.83568309  0.85209273  0.17144425    -0.09800
C1487       C  0.87035740  0.81918161  0.17124615     0.29100
C1488       C  0.91232620  0.83702062  0.17061663    -0.21800
C1489       C  0.92024050  0.88772633  0.17027163    -0.09800
C1490       C  0.88557274  0.91999740  0.16811852     0.29100
F1491       F  0.89182696  0.96913161  0.16697282    -0.20300
H1492       H  0.81784170  0.92841450  0.16837050     0.17400
H1493       H  0.93849887  0.81132302  0.17204791     0.17400
F1494       F  0.86394312  0.77015129  0.17291587    -0.20300
C1495       C  0.62384557  0.59877023  0.05467419    -0.21800
C1496       C  0.64394533  0.58230207  0.03674714    -0.09800
C1497       C  0.64439245  0.61236323  0.01927019     0.29100
C1498       C  0.62571372  0.65891207  0.02007757    -0.21800
C1499       C  0.60683464  0.67590412  0.03834276    -0.09800
C1500       C  0.60582806  0.64494024  0.05561950     0.29100
F1501       F  0.58736957  0.65877069  0.07360008    -0.20300
H1502       H  0.62295900  0.57619683  0.06830626     0.17400
H1503       H  0.62646384  0.68179703  0.00654837     0.17400
F1504       F  0.66443201  0.59783414  0.00180377    -0.20300
C1505       C  0.52843147  0.02017910  0.98319364    -0.21800
C1506       C  0.50320170  0.05566149  0.99315711    -0.09800
C1507       C  0.48251751  0.04333016  0.01159717     0.29100
C1508       C  0.48569873  0.99597969  0.01933707    -0.21800
C1509       C  0.50997132  0.96009046  0.00908833    -0.09800
C1510       C  0.53196223  0.97291442  0.99105649     0.29100
F1511       F  0.55749892  0.94030395  0.98116892    -0.20300
H1512       H  0.54476200  0.02866102  0.96897046     0.17400
H1513       H  0.46931245  0.98758241  0.03355535     0.17400
F1514       F  0.45798095  0.07629120  0.02185617    -0.20300
C1515       C  0.62203609  0.86452575  0.11450762    -0.21800
C1516       C  0.60155304  0.82167631  0.10768781    -0.09800
C1517       C  0.60922175  0.77726265  0.11797618     0.29100
C1518       C  0.63672467  0.77633245  0.13494422    -0.21800
C1519       C  0.65609018  0.81971060  0.14191559    -0.09800
C1520       C  0.64886119  0.86368015  0.13144748     0.29100
F1521       F  0.66810885  0.90591588  0.13752163    -0.20300
H1522       H  0.61706145  0.89911386  0.10677122     0.17400
H1523       H  0.64195792  0.74218050  0.14297511     0.17400
F1524       F  0.59084547  0.73490215  0.11149627    -0.20300
C1525       C  0.66215687  0.95968884  0.02604720    -0.21800
C1526       C  0.65330898  0.91152945  0.01951107    -0.09800
C1527       C  0.67136572  0.89504079  0.00092712     0.29100
C1528       C  0.69597652  0.92656340  0.98889073    -0.21800
C1529       C  0.70393729  0.97502422  0.99511060    -0.09800
C1530       C  0.68748587  0.99106907  0.01410467     0.29100
F1531       F  0.69478290  0.03737388  0.02090487    -0.20300
H1532       H  0.64839039  0.97361249  0.04015979     0.17400
H1533       H  0.70892092  0.91277670  0.97457634     0.17400
F1534       F  0.66363012  0.84916829  0.99374343    -0.20300
C1535       C  0.44843295  0.67356416  0.01187596    -0.21800
C1536       C  0.45701812  0.72194438  0.00583125    -0.09800
C1537       C  0.43920951  0.73911080  0.98736673     0.29100
C1538       C  0.41203062  0.70900645  0.97578507    -0.21800
C1539       C  0.40246970  0.66102031  0.98216287    -0.09800
C1540       C  0.42172133  0.64333558  0.00022958     0.29100
F1541       F  0.41322428  0.59761949  0.00731295    -0.20300
H1542       H  0.46225276  0.65899634  0.02581003     0.17400
H1543       H  0.39743761  0.72384001  0.96208836     0.17400
F1544       F  0.44682579  0.78546136  0.98080899    -0.20300
C1545       C  0.38473705  0.83000231  0.07688160    -0.21800
C1546       C  0.41896679  0.86344650  0.07672833    -0.09800
C1547       C  0.40999602  0.91387598  0.07818161     0.29100
C1548       C  0.36770719  0.93030433  0.07814146    -0.21800
C1549       C  0.33353603  0.89698356  0.07685354    -0.09800
C1550       C  0.34242888  0.84643342  0.07705357     0.29100
F1551       F  0.31051268  0.81281676  0.07573659    -0.20300
H1552       H  0.39066638  0.79099538  0.07581274     0.17400
H1553       H  0.36176832  0.96938365  0.07806092     0.17400
F1554       F  0.44188812  0.94764944  0.07799720    -0.20300
C1555       C  0.90009982  0.38867949  0.30383461    -0.21800
C1556       C  0.89635411  0.42061860  0.28708948    -0.09800
C1557       C  0.87620176  0.40405509  0.26905725     0.29100
C1558       C  0.85790139  0.35725193  0.26844147    -0.21800
C1559       C  0.85990827  0.32663990  0.28569253    -0.09800
C1560       C  0.88245547  0.34214898  0.30312869     0.29100
F1561       F  0.88678848  0.31261521  0.31972681    -0.20300
H1562       H  0.91683604  0.39960673  0.31764802     0.17400
H1563       H  0.84051485  0.34586664  0.25488072     0.17400
F1564       F  0.87303030  0.43334188  0.25233734    -0.20300
C1565       C  0.77551155  0.98718848  0.23336153    -0.21800
C1566       C  0.74681399  0.95327556  0.24191779    -0.09800
C1567       C  0.71971441  0.96841846  0.25799348     0.29100
C1568       C  0.72189371  0.01628035  0.26544808    -0.21800
C1569       C  0.75074040  0.05007353  0.25696697    -0.09800
C1570       C  0.77751183  0.03511951  0.24072942     0.29100
F1571       F  0.80686650  0.06604210  0.23246315    -0.20300
H1572       H  0.79618179  0.97673342  0.22073725     0.17400
H1573       H  0.70128469  0.02679555  0.27808555     0.17400
F1574       F  0.69001329  0.93768278  0.26607730    -0.20300
C1575       C  0.67187672  0.36900921  0.24681241    -0.21800
C1576       C  0.64794063  0.34799940  0.23076761    -0.09800
C1577       C  0.65219869  0.29725106  0.22703268     0.29100
C1578       C  0.67862883  0.26851739  0.23938612    -0.21800
C1579       C  0.70117013  0.28919550  0.25588054    -0.09800
C1580       C  0.69816190  0.34005250  0.25926159     0.29100
F1581       F  0.72094197  0.36197117  0.27444198    -0.20300
H1582       H  0.66924702  0.40776068  0.25018427     0.17400
H1583       H  0.68077437  0.22959291  0.23626468     0.17400
F1584       F  0.62964278  0.27468187  0.21193932    -0.20300
C1585       C  0.61604815  0.07972441  0.32969585    -0.21800
C1586       C  0.58179446  0.11271134  0.32850855    -0.09800
C1587       C  0.59041629  0.16336714  0.32938757     0.29100
C1588       C  0.63267071  0.18024015  0.32893352    -0.21800
C1589       C  0.66691305  0.14704710  0.32802103    -0.09800
C1590       C  0.65819109  0.09653155  0.32962598     0.29100
F1591       F  0.69011926  0.06292366  0.32928180    -0.20300
H1592       H  0.61030454  0.04058210  0.32940198     0.17400
H1593       H  0.63848151  0.21931213  0.32807015     0.17400
F1594       F  0.55828122  0.19669599  0.32887371    -0.20300
C1595       C  0.91762516  0.11582439  0.24920380    -0.21800
C1596       C  0.89361260  0.09518293  0.26527212    -0.09800
C1597       C  0.89614411  0.04420748  0.26859244     0.29100
C1598       C  0.92237343  0.01510556  0.25627399    -0.21800
C1599       C  0.94598120  0.03571866  0.24016137    -0.09800
C1600       C  0.94334446  0.08646075  0.23666344     0.29100
F1601       F  0.96627221  0.10794384  0.22142935    -0.20300
H1602       H  0.91575829  0.15466672  0.24599000     0.17400
H1603       H  0.92387963  0.97610624  0.25922057     0.17400
F1604       F  0.87237868  0.02191686  0.28331363    -0.20300
C1605       C  0.86101081  0.34061181  0.44713550    -0.21800
C1606       C  0.88261048  0.32516600  0.46472665    -0.09800
C1607       C  0.88326680  0.35535588  0.48223780     0.29100
C1608       C  0.86467631  0.40182640  0.48155819    -0.21800
C1609       C  0.84518330  0.41836768  0.46348342    -0.09800
C1610       C  0.84225569  0.38649969  0.44646328     0.29100
F1611       F  0.82138315  0.39936995  0.42903750    -0.20300
H1612       H  0.85954463  0.31748164  0.43361014     0.17400
H1613       H  0.86640612  0.42523210  0.49497242     0.17400
F1614       F  0.90385793  0.34121924  0.49954538    -0.20300
C1615       C  0.01177984  0.01112535  0.48316329    -0.21800
C1616       C  0.98713021  0.04707609  0.49309364    -0.09800
C1617       C  0.96398052  0.03427986  0.51083677     0.29100
C1618       C  0.96680970  0.98693848  0.51872957    -0.21800
C1619       C  0.99244472  0.95141590  0.50906270    -0.09800
C1620       C  0.01427395  0.96376638  0.49092223     0.29100
F1621       F  0.03953667  0.93085564  0.48105313    -0.20300
H1622       H  0.02907893  0.01953668  0.46920066     0.17400
H1623       H  0.94972133  0.97844378  0.53274840     0.17400
F1624       F  0.93799207  0.06698274  0.52039841    -0.20300
C1625       C  0.86154824  0.13909879  0.36534064    -0.21800
C1626       C  0.84862817  0.18354630  0.35655236    -0.09800
C1627       C  0.86132413  0.22779370  0.36588940     0.29100
C1628       C  0.88676674  0.22723206  0.38363309    -0.21800
C1629       C  0.89881986  0.18259909  0.39262068    -0.09800
C1630       C  0.88582820  0.13848389  0.38328700     0.29100
F1631       F  0.89705002  0.09455726  0.39136760    -0.20300
H1632       H  0.85221296  0.10455647  0.35844920     0.17400
H1633       H  0.89618926  0.26161316  0.39062833     0.17400
F1634       F  0.84983922  0.27144726  0.35768426    -0.20300
C1635       C  0.04256016  0.33846093  0.49144543    -0.21800
C1636       C  0.03873630  0.28830088  0.49601906    -0.09800
C1637       C  0.06029955  0.26997163  0.51328913     0.29100
C1638       C  0.08676547  0.30061445  0.52496133    -0.21800
C1639       C  0.09220013  0.35034678  0.51986267    -0.09800
C1640       C  0.06869068  0.36929233  0.50325629     0.29100
F1641       F  0.07212125  0.41712463  0.49785023    -0.20300
H1642       H  0.02540730  0.35390401  0.47857990     0.17400
H1643       H  0.10443073  0.28471189  0.53756217     0.17400
F1644       F  0.05732005  0.22195347  0.51845180    -0.20300
C1645       C  0.11246339  0.18150087  0.42649824    -0.21800
C1646       C  0.07833825  0.14836145  0.42417002    -0.09800
C1647       C  0.08757509  0.09916086  0.41927335     0.29100
C1648       C  0.12993139  0.08294622  0.41867178    -0.21800
C1649       C  0.16382088  0.11543911  0.42254575    -0.09800
C1650       C  0.15478427  0.16538476  0.42560879     0.29100
F1651       F  0.18652681  0.19796668  0.42962189    -0.20300
H1652       H  0.10646830  0.21959268  0.43017878     0.17400
H1653       H  0.13615009  0.04435493  0.41618015     0.17400
F1654       F  0.05584268  0.06587042  0.41642045    -0.20300
C1655       C  0.82337388  0.11610489  0.49954373    -0.21800
C1656       C  0.84403333  0.09640185  0.48222571    -0.09800
C1657       C  0.83658885  0.04695125  0.47705742     0.29100
C1658       C  0.81042259  0.01776395  0.48945038    -0.21800
C1659       C  0.79164722  0.03695581  0.50733340    -0.09800
C1660       C  0.79771026  0.08682187  0.51204172     0.29100
F1661       F  0.77887835  0.10751991  0.52872004    -0.20300
H1662       H  0.82852882  0.15389767  0.50401717     0.17400
H1663       H  0.80564596  0.97970424  0.48528614     0.17400
F1664       F  0.85565248  0.02619388  0.46046018    -0.20300
loop_ 
_geom_bond_atom_site_label_1 
_geom_bond_atom_site_label_2 
_geom_bond_distance 
_geom_bond_site_symmetry_2 
_ccdc_geom_bond_type 
O1           C16   1.261       .  A
O1           Al9   1.890       .  S
C2           O12   1.261       .  A
C2            O3   1.266       .  A
C2         C1646   1.483       .  S
O3           Al5   1.928   1_455  S
O4            C6   1.258       .  A
O4           Al5   1.873       .  S
Al5          O13   1.878       .  S
Al5          O15   1.929       .  S
Al5          O14   1.773       .  S
C6           O19   1.266       .  A
C6         C1616   1.474       .  S
O7           C17   1.263   1_655  A
O7           Al9   1.899       .  S
O8           C21   1.259       .  A
O8          Al18   1.866       .  S
Al9          O22   1.924       .  S
Al9          O19   1.931       .  S
Al9          O14   1.779       .  S
O10          C17   1.268       .  A
O10         Al18   1.941   1_455  S
O11          C20   1.268       .  A
O11         Al18   1.946       .  S
O12         Al18   1.888   1_455  S
O13          C20   1.258       .  A
O14         Al18   1.772       .  S
O15          C16   1.265       .  A
C16        C1656   1.481       .  S
C17        C1636   1.487       .  S
C20        C1629   1.481       .  S
C21          O22   1.265       .  A
C21        C1606   1.463       .  S
O23          C38   1.262       .  A
O23         Al31   1.894       .  S
C24          O34   1.262       .  A
C24          O25   1.264       .  A
C24        C1589   1.481       .  S
O25         Al27   1.921       .  S
O26          C28   1.260       .  A
O26         Al27   1.883       .  S
Al27         O35   1.883       .  S
Al27         O37   1.918       .  S
Al27         O36   1.773       .  S
C28          O41   1.266       .  A
C28        C1569   1.472       .  S
O29          C39   1.260       .  A
O29         Al31   1.889       .  S
O30          C43   1.258       .  A
O30         Al40   1.862       .  S
Al31         O44   1.932       .  S
Al31         O41   1.927       .  S
Al31         O36   1.780       .  S
O32          C39   1.268       .  A
O32         Al40   1.944       .  S
O33          C42   1.269       .  A
O33         Al40   1.945       .  S
O34         Al40   1.895       .  S
O35          C42   1.260       .  A
O36         Al40   1.773       .  S
O37          C38   1.263       .  A
C38        C1596   1.481       .  S
C39        C1579   1.484       .  S
C42        C1626   1.481       .  S
C43          O44   1.266       .  A
C43        C1559   1.465       .  S
O45          C60   1.268       .  A
O45         Al53   1.941       .  S
C46          O56   1.265       .  A
C46          O47   1.259       .  A
C46        C1546   1.482       .  S
O47         Al49   1.885       .  S
O48          C50   1.267       .  A
O48         Al49   1.931       .  S
Al49         O57   1.943       .  S
Al49         O59   1.855       .  S
Al49         O58   1.770       .  S
C50          O63   1.262       .  A
C50        C1536   1.485       .  S
O51          C61   1.270       .  A
O51         Al53   1.942       .  S
O52          C65   1.265       .  A
O52         Al62   1.931       .  S
Al53         O66   1.898       .  S
Al53         O63   1.896       .  S
Al53         O58   1.777       .  S
O54          C61   1.257       .  A
O54         Al62   1.865       .  S
O55          C64   1.257       .  A
O55         Al62   1.862       .  S
O56         Al62   1.931       .  S
O57          C64   1.269       .  A
O58         Al62   1.771       .  S
O59          C60   1.255       .  A
C60        C1499   1.473       .  S
C61        C1509   1.473       .  S
C64        C1516   1.474       .  S
C65          O66   1.262       .  A
C65        C1526   1.485       .  S
O67          C82   1.267       .  A
O67         Al75   1.942       .  S
C68          O78   1.265       .  A
C68          O69   1.259       .  A
C68        C1486   1.480       .  S
O69         Al71   1.890       .  S
O70          C72   1.266       .  A
O70         Al71   1.928       .  S
Al71         O79   1.933       .  S
Al71         O81   1.860       .  S
Al71         O80   1.774       .  S
C72          O85   1.261       .  A
C72        C1476   1.481       .  S
O73          C83   1.268       .  A
O73         Al75   1.934       .  S
O74          C87   1.266       .  A
O74         Al84   1.937       .  S
Al75         O88   1.899       .  S
Al75         O85   1.889       .  S
Al75         O80   1.778       .  S
O76          C83   1.259       .  A
O76         Al84   1.876       .  S
O77          C86   1.259       .  A
O77         Al84   1.868       .  S
O78         Al84   1.925       .  S
O79          C86   1.267       .  A
O80         Al84   1.772       .  S
O81          C82   1.257       .  A
C82        C1459   1.477       .  S
C83        C1566   1.473       .  S
C86        C1519   1.465       .  S
C87          O88   1.263       .  A
C87        C1469   1.490       .  S
O89         C104   1.263       .  A
O89         Al97   1.897       .  S
C90         O100   1.258       .  A
C90          O91   1.266       .  A
C90        C1439   1.483       .  S
O91         Al93   1.927       .  S
O92          C94   1.258       .  A
O92         Al93   1.875       .  S
Al93        O101   1.869       .  S
Al93        O103   1.930       .  S
Al93        O102   1.772       .  S
C94         O107   1.266       .  A
C94        C1409   1.476       .  S
O95         C105   1.263       .  A
O95         Al97   1.893       .  S
O96         C109   1.256       .  A
O96        Al106   1.864       .  S
Al97        O110   1.934       .  S
Al97        O107   1.936       .  S
Al97        O102   1.783       .  S
O98         C105   1.267       .  A
O98        Al106   1.930       .  S
O99         C108   1.267       .  A
O99        Al106   1.938       .  S
O100       Al106   1.886       .  S
O101        C108   1.257       .  A
O102       Al106   1.775       .  S
O103        C104   1.267       .  A
C104       C1446   1.486       .  S
C105       C1429   1.484       .  S
C108       C1419   1.471       .  S
C109        O110   1.266       .  A
C109       C1396   1.472       .  S
O111        C126   1.263       .  A
O111       Al119   1.894       .  S
C112        O122   1.258       .  A
C112        O113   1.266       .  A
C112       C1376   1.482       .  S
O113       Al115   1.934       .  S
O114        C116   1.258       .  A
O114       Al115   1.873       .  S
Al115       O123   1.873       .  S
Al115       O125   1.934       .  S
Al115       O124   1.773       .  S
C116        O129   1.269       .  A
C116       C1506   1.474       .  S
O117        C127   1.260       .  A
O117       Al119   1.887       .  S
O118        C131   1.256       .  A
O118       Al128   1.861       .  S
Al119       O132   1.947       .  S
Al119       O129   1.937       .  S
Al119       O124   1.777       .  S
O120        C127   1.267       .  A
O120       Al128   1.932       .  S
O121        C130   1.269       .  A
O121       Al128   1.940       .  S
O122       Al128   1.878       .  S
O123        C130   1.259       .  A
O124       Al128   1.772       .  S
O125        C126   1.266       .  A
C126       C1386   1.484       .  S
C127       C1369   1.481       .  S
C130       C1416   1.479       .  S
C131        O132   1.268       .  A
C131       C1356   1.472       .  S
O133        C148   1.268       .  A
O133       Al141   1.939       .  S
C134        O144   1.265       .  A
C134        O135   1.260       .  A
C134       C1346   1.476       .  S
O135       Al137   1.884       .  S
O136        C138   1.266       .  A
O136       Al137   1.936       .  S
Al137       O145   1.942       .  S
Al137       O147   1.860       .  S
Al137       O146   1.774       .  S
C138        O151   1.259       .  A
C138       C1336   1.477       .  S
O139        C149   1.267       .  A
O139       Al141   1.928       .  S
O140        C153   1.265       .  A
O140       Al150   1.928       .  S
Al141       O154   1.891       .  S
Al141       O151   1.885       .  S
Al141       O146   1.775       .  S
O142        C149   1.258       .  A
O142       Al150   1.880       .  S
O143        C152   1.258       .  A
O143       Al150   1.870       .  S
O144       Al150   1.926       .  S
O145        C152   1.268       .  A
O146       Al150   1.774       .  S
O147        C148   1.259       .  A
C148       C1306   1.470       .  S
C149       C1406   1.474       .  S
C152       C1316   1.474       .  S
C153        O154   1.261       .  A
C153       C1326   1.481       .  S
O155        C170   1.267       .  A
O155       Al163   1.931       .  S
C156        O166   1.265       .  A
C156        O157   1.261       .  A
C156       C1296   1.483       .  S
O157       Al159   1.895   1_655  S
O158        C160   1.267       .  A
O158       Al159   1.940   1_655  S
Al159       O167   1.942       .  S
Al159       O169   1.869       .  S
Al159       O168   1.774       .  S
C160        O173   1.260       .  A
C160       C1289   1.486       .  S
O161        C171   1.268       .  A
O161       Al163   1.931       .  S
O162        C175   1.265       .  A
O162       Al172   1.937       .  S
Al163       O176   1.891       .  S
Al163       O173   1.883   1_455  S
Al163       O168   1.772       .  S
O164        C171   1.258   1_655  A
O164       Al172   1.876   1_655  S
O165        C174   1.260       .  A
O165       Al172   1.874       .  S
O166       Al172   1.925   1_655  S
O167        C174   1.270       .  A
O168       Al172   1.777       .  S
O169        C170   1.259       .  A
C170       C1266   1.469       .  S
C171       C1619   1.473   1_455  S
C174       C1319   1.473       .  S
C175        O176   1.261       .  A
C175       C1279   1.485       .  S
O177        C192   1.268       .  A
O177       Al185   1.945   1_545  S
C178        O188   1.264       .  A
C178        O179   1.259       .  A
C178       C1549   1.480       .  S
O179       Al181   1.886       .  S
O180        C182   1.266       .  A
O180       Al181   1.923   1_545  S
Al181       O189   1.936       .  S
Al181       O191   1.861   1_565  S
Al181       O190   1.770       .  S
C182        O195   1.261   1_545  A
C182       C1389   1.483       .  S
O183        C193   1.270       .  A
O183       Al185   1.944       .  S
O184        C197   1.265       .  A
O184       Al194   1.929       .  S
Al185       O198   1.895       .  S
Al185       O195   1.897       .  S
Al185       O190   1.779       .  S
O186        C193   1.255       .  A
O186       Al194   1.862       .  S
O187        C196   1.257       .  A
O187       Al194   1.863       .  S
O188       Al194   1.928       .  S
O189        C196   1.267       .  A
O190       Al194   1.773       .  S
O191        C192   1.258       .  A
C192       C1226   1.478       .  S
C193       C1239   1.467       .  S
C196       C1246   1.461       .  S
C197        O198   1.261       .  A
C197       C1259   1.484       .  S
O199        C214   1.270       .  A
O199       Al207   1.944   1_545  S
C200        O210   1.266       .  A
C200        O201   1.260       .  A
C200       C1489   1.477       .  S
O201       Al203   1.879   1_655  S
O202        C204   1.263       .  A
O202       Al203   1.925   1_645  S
Al203       O211   1.925       .  S
Al203       O213   1.861   1_565  S
Al203       O212   1.774       .  S
C204        O217   1.258   1_545  A
C204       C1599   1.475       .  S
O205        C215   1.267       .  A
O205       Al207   1.927       .  S
O206        C219   1.264       .  A
O206       Al216   1.925       .  S
Al207       O220   1.891       .  S
Al207       O217   1.886   1_455  S
Al207       O212   1.775       .  S
O208        C215   1.258       .  A
O208       Al216   1.874       .  S
O209        C218   1.260       .  A
O209       Al216   1.877       .  S
O210       Al216   1.931   1_655  S
O211        C218   1.265       .  A
O212       Al216   1.774       .  S
O213        C214   1.258       .  A
C214       C1199   1.478       .  S
C215       C1209   1.468   1_455  S
C218       C1249   1.472       .  S
C219        O220   1.260       .  A
C219       C1219   1.479       .  S
O221        C236   1.262       .  A
O221       Al229   1.892       .  S
C222        O232   1.260       .  A
C222        O223   1.268       .  A
C222       C1186   1.482       .  S
O223       Al225   1.937   1_455  S
O224        C226   1.259       .  A
O224       Al225   1.875       .  S
Al225       O233   1.877       .  S
Al225       O235   1.927       .  S
Al225       O234   1.769       .  S
C226        O239   1.267       .  A
C226       C1206   1.471       .  S
O227        C237   1.262       .  A
O227       Al229   1.894   1_455  S
O228        C241   1.260       .  A
O228       Al238   1.867       .  S
Al229       O242   1.935       .  S
Al229       O239   1.932       .  S
Al229       O234   1.775       .  S
O230        C237   1.265       .  A
O230       Al238   1.929   1_455  S
O231        C240   1.266       .  A
O231       Al238   1.940       .  S
O232       Al238   1.879   1_455  S
O233        C240   1.257       .  A
O234       Al238   1.772       .  S
O235        C236   1.265       .  A
C236       C1479   1.482       .  S
C237       C1176   1.472       .  S
C240       C1166   1.472       .  S
C241        O242   1.267       .  A
C241       C1556   1.471       .  S
O243        C258   1.262       .  A
O243       Al251   1.898       .  S
C244        O254   1.257       .  A
C244        O245   1.270       .  A
C244       C1156   1.478       .  S
O245       Al247   1.945       .  S
O246        C248   1.257       .  A
O246       Al247   1.866       .  S
Al247       O255   1.887       .  S
Al247       O257   1.925       .  S
Al247       O256   1.769       .  S
C248        O261   1.270       .  A
C248       C1136   1.473       .  S
O249        C259   1.262       .  A
O249       Al251   1.902       .  S
O250        C263   1.257       .  A
O250       Al260   1.855       .  S
Al251       O264   1.943       .  S
Al251       O261   1.941       .  S
Al251       O256   1.778       .  S
O252        C259   1.264       .  A
O252       Al260   1.922       .  S
O253        C262   1.265       .  A
O253       Al260   1.935       .  S
O254       Al260   1.865       .  S
O255        C262   1.257       .  A
O256       Al260   1.771       .  S
O257        C258   1.265       .  A
C258       C1286   1.485       .  S
C259       C1146   1.486       .  S
C262       C1169   1.464       .  S
C263        O264   1.270       .  A
C263       C1609   1.470       .  S
O265        C280   1.267       .  A
O265       Al273   1.937   1_545  S
C266        O276   1.265       .  A
C266        O267   1.261       .  A
C266       C1349   1.479       .  S
O267       Al269   1.888       .  S
O268        C270   1.268       .  A
O268       Al269   1.939   1_545  S
Al269       O277   1.939       .  S
Al269       O279   1.853   1_565  S
Al269       O278   1.767       .  S
C270        O283   1.261   1_545  A
C270       C1449   1.484       .  S
O271        C281   1.268       .  A
O271       Al273   1.939       .  S
O272        C285   1.266       .  A
O272       Al282   1.934       .  S
Al273       O286   1.888       .  S
Al273       O283   1.892       .  S
Al273       O278   1.779       .  S
O274        C281   1.255       .  A
O274       Al282   1.862       .  S
O275        C284   1.257       .  A
O275       Al282   1.868       .  S
O276       Al282   1.926       .  S
O277        C284   1.268       .  A
O278       Al282   1.770       .  S
O279        C280   1.256       .  A
C280       C1096   1.463       .  S
C281       C1106   1.471       .  S
C284       C1116   1.464       .  S
C285        O286   1.261       .  A
C285       C1126   1.476       .  S
O287        C302   1.269       .  A
O287       Al295   1.943   1_545  S
C288        O298   1.266       .  A
C288        O289   1.259       .  A
C288       C1299   1.481       .  S
O289       Al291   1.885       .  S
O290        C292   1.266       .  A
O290       Al291   1.927   1_545  S
Al291       O299   1.941       .  S
Al291       O301   1.871   1_565  S
Al291       O300   1.772       .  S
C292        O305   1.260   1_545  A
C292       C1659   1.479       .  S
O293        C303   1.270       .  A
O293       Al295   1.944       .  S
O294        C307   1.266       .  A
O294       Al304   1.932       .  S
Al295       O308   1.890       .  S
Al295       O305   1.889       .  S
Al295       O300   1.775       .  S
O296        C303   1.257       .  A
O296       Al304   1.869       .  S
O297        C306   1.259       .  A
O297       Al304   1.872       .  S
O298       Al304   1.931       .  S
O299        C306   1.269       .  A
O300       Al304   1.773       .  S
O301        C302   1.260       .  A
C302       C1076   1.476       .  S
C303       C1139   1.475       .  S
C306       C1119   1.479       .  S
C307        O308   1.260       .  A
C307       C1086   1.485       .  S
O309        C324   1.262       .  A
O309       Al317   1.899       .  S
C310        O320   1.261       .  A
C310        O311   1.263       .  A
C310       C1069   1.478       .  S
O311       Al313   1.921       .  S
O312        C314   1.256       .  A
O312       Al313   1.864       .  S
Al313       O321   1.871       .  S
Al313       O323   1.923       .  S
Al313       O322   1.770       .  S
C314        O327   1.270       .  A
C314       C1109   1.470       .  S
O315        C325   1.259       .  A
O315       Al317   1.883       .  S
O316        C329   1.258       .  A
O316       Al326   1.860       .  S
Al317       O330   1.936       .  S
Al317       O327   1.937       .  S
Al317       O322   1.774       .  S
O318        C325   1.267       .  A
O318       Al326   1.941       .  S
O319        C328   1.271       .  A
O319       Al326   1.942       .  S
O320       Al326   1.892       .  S
O321        C328   1.260       .  A
O322       Al326   1.769       .  S
O323        C324   1.263       .  A
C324       C1339   1.484       .  S
C325       C1059   1.483       .  S
C328       C1046   1.475       .  S
C329        O330   1.268       .  A
C329       C1399   1.465       .  S
O331        C346   1.261       .  A
O331       Al339   1.892       .  S
C332        O342   1.260       .  A
C332        O333   1.264       .  A
C332       C1036   1.477       .  S
O333       Al335   1.924       .  S
O334        C336   1.256       .  A
O334       Al335   1.868       .  S
Al335       O343   1.873       .  S
Al335       O345   1.935       .  S
Al335       O344   1.774       .  S
C336        O349   1.269       .  A
C336       C1236   1.466       .  S
O337        C347   1.260       .  A
O337       Al339   1.893       .  S
O338        C351   1.259       .  A
O338       Al348   1.866       .  S
Al339       O352   1.942       .  S
Al339       O349   1.938       .  S
Al339       O344   1.777       .  S
O340        C347   1.266       .  A
O340       Al348   1.929       .  S
O341        C350   1.267       .  A
O341       Al348   1.936       .  S
O342       Al348   1.884       .  S
O343        C350   1.259       .  A
O344       Al348   1.771       .  S
O345        C346   1.266       .  A
C346       C1539   1.486       .  S
C347       C1026   1.485       .  S
C350       C1049   1.467       .  S
C351        O352   1.269       .  A
C351       C1359   1.478       .  S
O353        C368   1.266       .  A
O353       Al361   1.934       .  S
C354        O364   1.263       .  A
C354        O355   1.261       .  A
C354       C1016   1.479       .  S
O355       Al357   1.888       .  S
O356        C358   1.268       .  A
O356       Al357   1.944       .  S
Al357       O365   1.944       .  S
Al357       O367   1.853       .  S
Al357       O366   1.771       .  S
C358        O371   1.258       .  A
C358       C1009   1.476       .  S
O359        C369   1.267       .  A
O359       Al361   1.920       .  S
O360        C373   1.264       .  A
O360       Al370   1.924       .  S
Al361       O374   1.896       .  S
Al361       O371   1.882       .  S
Al361       O366   1.774       .  S
O362        C369   1.258       .  A
O362       Al370   1.872       .  S
O363        C372   1.258       .  A
O363       Al370   1.865       .  S
O364       Al370   1.924       .  S
O365        C372   1.270       .  A
O366       Al370   1.774       .  S
O367        C368   1.257       .  A
C368       C1496   1.465       .  S
C369        C986   1.465       .  S
C372        C996   1.470       .  S
C373        O374   1.262       .  A
C373       C1366   1.482       .  S
O375        C390   1.268       .  A
O375       Al383   1.941       .  S
C376        O386   1.264       .  A
C376        O377   1.259       .  A
C376        C976   1.478       .  S
O377       Al379   1.882       .  S
O378        C380   1.266       .  A
O378       Al379   1.927       .  S
Al379       O387   1.940       .  S
Al379       O389   1.858       .  S
Al379       O388   1.774       .  S
C380        O393   1.261       .  A
C380        C966   1.487       .  S
O381        C391   1.268       .  A
O381       Al383   1.934       .  S
O382        C395   1.264       .  A
O382       Al392   1.924       .  S
Al383       O396   1.906       .  S
Al383       O393   1.897       .  S
Al383       O388   1.784       .  S
O384        C391   1.258       .  A
O384       Al392   1.866       .  S
O385        C394   1.259       .  A
O385       Al392   1.869       .  S
O386       Al392   1.930       .  S
O387        C394   1.268       .  A
O388       Al392   1.774       .  S
O389        C390   1.257       .  A
C390       C1456   1.476       .  S
C391        C959   1.472       .  S
C394        C999   1.474       .  S
C395        O396   1.263       .  A
C395       C1576   1.490       .  S
O397        C412   1.263       .  A
O397       Al405   1.905       .  S
C398        O408   1.258       .  A
C398        O399   1.264       .  A
C398       C1649   1.477       .  S
O399       Al401   1.928       .  S
O400        C402   1.258       .  A
O400       Al401   1.870       .  S
Al401       O409   1.873       .  S
Al401       O411   1.919       .  S
Al401       O410   1.770       .  S
C402        O415   1.269       .  A
C402        C929   1.472       .  S
O403        C413   1.259       .  A
O403       Al405   1.889       .  S
O404        C417   1.256       .  A
O404       Al414   1.856   1_565  S
Al405       O418   1.944   1_545  S
Al405       O415   1.937       .  S
Al405       O410   1.779       .  S
O406        C413   1.268   1_565  A
O406       Al414   1.938   1_565  S
O407        C416   1.271       .  A
O407       Al414   1.953       .  S
O408       Al414   1.883       .  S
O409        C416   1.259       .  A
O410       Al414   1.774       .  S
O411        C412   1.264       .  A
C412        C946   1.488       .  S
C413       C1276   1.485   1_545  S
C416        C936   1.487       .  S
C417        O418   1.270       .  A
C417        C919   1.476       .  S
O419        C434   1.264       .  A
O419       Al427   1.909       .  S
C420        O430   1.261       .  A
C420        O421   1.264       .  A
C420       C1586   1.480       .  S
O421       Al423   1.927       .  S
O422        C424   1.259       .  A
O422       Al423   1.871       .  S
Al423       O431   1.881       .  S
Al423       O433   1.922       .  S
Al423       O432   1.777       .  S
C424        O437   1.268       .  A
C424        C956   1.471       .  S
O425        C435   1.259   1_545  A
O425       Al427   1.897       .  S
O426        C439   1.257       .  A
O426       Al436   1.853   1_565  S
Al427       O440   1.942   1_545  S
Al427       O437   1.926       .  S
Al427       O432   1.782       .  S
O428        C435   1.266       .  A
O428       Al436   1.936   1_565  S
O429        C438   1.268       .  A
O429       Al436   1.940       .  S
O430       Al436   1.887       .  S
O431        C438   1.260       .  A
O432       Al436   1.773       .  S
O433        C434   1.263       .  A
C434        C909   1.492       .  S
C435       C1466   1.485       .  S
C438        C939   1.468       .  S
C439        O440   1.269       .  A
C439        C896   1.476       .  S
O441        C456   1.269       .  A
O441       Al449   1.949       .  S
C442        O452   1.267       .  A
C442        O443   1.258       .  A
C442        C886   1.484       .  S
O443       Al445   1.875   1_655  S
O444        C446   1.265       .  A
O444       Al445   1.912   1_655  S
Al445       O453   1.927       .  S
Al445       O455   1.855       .  S
Al445       O454   1.767       .  S
C446        O459   1.262   1_655  A
C446        C876   1.480       .  S
O447        C457   1.270       .  A
O447       Al449   1.949       .  S
O448        C461   1.267       .  A
O448       Al458   1.934       .  S
Al449       O462   1.888       .  S
Al449       O459   1.899       .  S
Al449       O454   1.781       .  S
O450        C457   1.254       .  A
O450       Al458   1.858       .  S
O451        C460   1.256       .  A
O451       Al458   1.865       .  S
O452       Al458   1.939   1_655  S
O453        C460   1.264       .  A
O454       Al458   1.768       .  S
O455        C456   1.257       .  A
C456       C1309   1.475       .  S
C457        C859   1.475       .  S
C460        C869   1.460       .  S
C461        O462   1.261       .  A
C461       C1426   1.480       .  S
O463        C478   1.270       .  A
O463       Al471   1.946       .  S
C464        O474   1.265       .  A
C464        O465   1.260       .  A
C464        C849   1.475       .  S
O465       Al467   1.885       .  S
O466        C468   1.265       .  A
O466       Al467   1.927       .  S
Al467       O475   1.939       .  S
Al467       O477   1.853       .  S
Al467       O476   1.774       .  S
C468        O481   1.260       .  A
C468        C836   1.481       .  S
O469        C479   1.271       .  A
O469       Al471   1.941       .  S
O470        C483   1.264       .  A
O470       Al480   1.924       .  S
Al471       O484   1.905       .  S
Al471       O481   1.895       .  S
Al471       O476   1.776       .  S
O472        C479   1.257       .  A
O472       Al480   1.863       .  S
O473        C482   1.258       .  A
O473       Al480   1.861       .  S
O474       Al480   1.928       .  S
O475        C482   1.268       .  A
O476       Al480   1.770       .  S
O477        C478   1.257       .  A
C478       C1269   1.475       .  S
C479        C926   1.472       .  S
C482        C866   1.470       .  S
C483        O484   1.262       .  A
C483       C1639   1.490       .  S
O485        C500   1.260       .  A
O485       Al493   1.895       .  S
C486        O496   1.260       .  A
C486        O487   1.269       .  A
C486       C1436   1.480       .  S
O487       Al489   1.942   1_455  S
O488        C490   1.257       .  A
O488       Al489   1.868       .  S
Al489       O497   1.889       .  S
Al489       O499   1.927       .  S
Al489       O498   1.773       .  S
C490        O503   1.270       .  A
C490        C856   1.471   1_655  S
O491        C501   1.258       .  A
O491       Al493   1.890   1_455  S
O492        C505   1.260       .  A
O492       Al502   1.863   1_565  S
Al493       O506   1.945       .  S
Al493       O503   1.933       .  S
Al493       O498   1.775       .  S
O494        C501   1.263   1_565  A
O494       Al502   1.926   1_465  S
O495        C504   1.266       .  A
O495       Al502   1.935       .  S
O496       Al502   1.875   1_455  S
O497        C504   1.260       .  A
O498       Al502   1.773       .  S
O499        C500   1.264       .  A
C500        C826   1.487       .  S
C501       C1329   1.484   1_545  S
C504        C816   1.472       .  S
C505        O506   1.270   1_565  A
C505        C809   1.467       .  S
O507        C522   1.261       .  A
O507       Al515   1.896       .  S
C508        O518   1.259       .  A
C508        O509   1.268       .  A
C508       C1379   1.476       .  S
O509       Al511   1.941       .  S
O510        C512   1.258       .  A
O510       Al511   1.863       .  S
Al511       O519   1.883       .  S
Al511       O521   1.923       .  S
Al511       O520   1.769       .  S
C512        O525   1.268       .  A
C512        C989   1.465       .  S
O513        C523   1.260       .  A
O513       Al515   1.898       .  S
O514        C527   1.258       .  A
O514       Al524   1.858   1_565  S
Al515       O528   1.938   1_545  S
Al515       O525   1.930       .  S
Al515       O520   1.779       .  S
O516        C523   1.265   1_565  A
O516       Al524   1.926   1_565  S
O517        C526   1.266       .  A
O517       Al524   1.939       .  S
O518       Al524   1.874       .  S
O519        C526   1.258       .  A
O520       Al524   1.772       .  S
O521        C522   1.263       .  A
C522        C799   1.482       .  S
C523       C1529   1.484   1_545  S
C526        C819   1.464       .  S
C527        O528   1.270       .  A
C527        C786   1.474       .  S
O529        C544   1.262       .  A
O529       Al537   1.899       .  S
C530        O540   1.260       .  A
C530        O531   1.263       .  A
C530       C1039   1.476       .  S
O531       Al533   1.922   1_455  S
O532        C534   1.258       .  A
O532       Al533   1.875       .  S
Al533       O541   1.872       .  S
Al533       O543   1.924       .  S
Al533       O542   1.774       .  S
C534        O547   1.269       .  A
C534        C766   1.468       .  S
O535        C545   1.259       .  A
O535       Al537   1.888   1_455  S
O536        C549   1.258       .  A
O536       Al546   1.859       .  S
Al537       O550   1.938       .  S
Al537       O547   1.935       .  S
Al537       O542   1.777       .  S
O538        C545   1.267       .  A
O538       Al546   1.932   1_455  S
O539        C548   1.268       .  A
O539       Al546   1.938       .  S
O540       Al546   1.884   1_455  S
O541        C548   1.259       .  A
O542       Al546   1.772       .  S
O543        C544   1.265       .  A
C544       C1006   1.484       .  S
C545       C1256   1.481       .  S
C548        C776   1.465       .  S
C549        O550   1.267       .  A
C549        C789   1.468       .  S
O551        C566   1.262       .  A
O551       Al559   1.892       .  S
C552        O562   1.259       .  A
C552        O553   1.263       .  A
C552       C1066   1.480       .  S
O553       Al555   1.923       .  S
O554        C556   1.258       .  A
O554       Al555   1.872       .  S
Al555       O563   1.869       .  S
Al555       O565   1.922       .  S
Al555       O564   1.775       .  S
C556        O569   1.268       .  A
C556        C756   1.472       .  S
O557        C567   1.261       .  A
O557       Al559   1.893       .  S
O558        C571   1.259       .  A
O558       Al568   1.869       .  S
Al559       O572   1.937       .  S
Al559       O569   1.934       .  S
Al559       O564   1.777       .  S
O560        C567   1.265       .  A
O560       Al568   1.922       .  S
O561        C570   1.268       .  A
O561       Al568   1.939       .  S
O562       Al568   1.887       .  S
O563        C570   1.259       .  A
O564       Al568   1.771       .  S
O565        C566   1.263       .  A
C566        C879   1.477       .  S
C567       C1129   1.483       .  S
C570        C779   1.478       .  S
C571        O572   1.267       .  A
C571        C806   1.475       .  S
O573        C588   1.268       .  A
O573       Al581   1.939       .  S
C574        O584   1.265       .  A
C574        O575   1.261       .  A
C574       C1019   1.480       .  S
O575       Al577   1.891   1_655  S
O576        C578   1.266       .  A
O576       Al577   1.929   1_655  S
Al577       O585   1.940       .  S
Al577       O587   1.866       .  S
Al577       O586   1.772       .  S
C578        O591   1.262       .  A
C578        C796   1.487       .  S
O579        C589   1.269       .  A
O579       Al581   1.939       .  S
O580        C593   1.265       .  A
O580       Al590   1.931       .  S
Al581       O594   1.890       .  S
Al581       O591   1.896   1_455  S
Al581       O586   1.780       .  S
O582        C589   1.257       .  A
O582       Al590   1.874       .  S
O583        C592   1.260       .  A
O583       Al590   1.882       .  S
O584       Al590   1.924   1_655  S
O585        C592   1.268       .  A
O586       Al590   1.775       .  S
O587        C588   1.259       .  A
C588       C1229   1.475       .  S
C589        C769   1.470       .  S
C592        C749   1.479       .  S
C593        O594   1.261       .  A
C593       C1029   1.482       .  S
O595        C610   1.267       .  A
O595       Al603   1.944       .  S
C596        O606   1.264       .  A
C596        O597   1.259       .  A
C596        C979   1.482       .  S
O597       Al599   1.888       .  S
O598        C600   1.270       .  A
O598       Al599   1.947       .  S
Al599       O607   1.947       .  S
Al599       O609   1.857       .  S
Al599       O608   1.767       .  S
C600        O613   1.262       .  A
C600        C906   1.486       .  S
O601        C611   1.267       .  A
O601       Al603   1.933       .  S
O602        C615   1.266       .  A
O602       Al612   1.921       .  S
Al603       O616   1.905       .  S
Al603       O613   1.893       .  S
Al603       O608   1.784       .  S
O604        C611   1.257       .  A
O604       Al612   1.872       .  S
O605        C614   1.257       .  A
O605       Al612   1.871       .  S
O606       Al612   1.924       .  S
O607        C614   1.270       .  A
O608       Al612   1.773       .  S
O609        C610   1.256       .  A
C610       C1196   1.473       .  S
C611        C739   1.468       .  S
C614        C746   1.477       .  S
C615        O616   1.265       .  A
C615       C1179   1.483       .  S
O617        C632   1.262       .  A
O617       Al625   1.895       .  S
C618        O628   1.259       .  A
C618        O619   1.263       .  A
C618       C1189   1.481       .  S
O619       Al621   1.925       .  S
O620        C622   1.257       .  A
O620       Al621   1.870       .  S
Al621       O629   1.878       .  S
Al621       O631   1.931       .  S
Al621       O630   1.777       .  S
C622        O635   1.267       .  A
C622        C736   1.465       .  S
O623        C633   1.258       .  A
O623       Al625   1.885       .  S
O624        C637   1.257       .  A
O624       Al634   1.860       .  S
Al625       O638   1.935       .  S
Al625       O635   1.928       .  S
Al625       O630   1.780       .  S
O626        C633   1.267       .  A
O626       Al634   1.935       .  S
O627        C636   1.270       .  A
O627       Al634   1.944       .  S
O628       Al634   1.890       .  S
O629        C636   1.260       .  A
O630       Al634   1.772       .  S
O631        C632   1.265       .  A
C632        C969   1.484       .  S
C633       C1216   1.487       .  S
C636        C726   1.471       .  S
C637        O638   1.267       .  A
C637        C899   1.474       .  S
O639        C654   1.262       .  A
O639       Al647   1.897       .  S
C640        O650   1.259       .  A
C640        O641   1.265       .  A
C640       C1159   1.483       .  S
O641       Al643   1.928       .  S
O642        C644   1.257       .  A
O642       Al643   1.872       .  S
Al643       O651   1.876       .  S
Al643       O653   1.930       .  S
Al643       O652   1.770       .  S
C644        O657   1.268       .  A
C644        C716   1.470       .  S
O645        C655   1.260       .  A
O645       Al647   1.891       .  S
O646        C659   1.259       .  A
O646       Al656   1.866       .  S
Al647       O660   1.936       .  S
Al647       O657   1.938       .  S
Al647       O652   1.778       .  S
O648        C655   1.267       .  A
O648       Al656   1.935       .  S
O649        C658   1.269       .  A
O649       Al656   1.947       .  S
O650       Al656   1.887       .  S
O651        C658   1.259       .  A
O652       Al656   1.773       .  S
O653        C654   1.266       .  A
C654        C839   1.486       .  S
C655       C1089   1.481       .  S
C658        C729   1.486       .  S
C659        O660   1.267       .  A
C659        C916   1.475       .  S
O661        C676   1.265       .  A
O661       Al669   1.923       .  S
C662        O672   1.265       .  A
C662        O663   1.260       .  A
C662        C889   1.479       .  S
O663       Al665   1.889       .  S
O664        C666   1.267       .  A
O664       Al665   1.935       .  S
Al665       O673   1.944       .  S
Al665       O675   1.865       .  S
Al665       O674   1.775       .  S
C666        O679   1.261       .  A
C666        C829   1.488       .  S
O667        C677   1.266       .  A
O667       Al669   1.928       .  S
O668        C681   1.266       .  A
O668       Al678   1.928       .  S
Al669       O682   1.895       .  S
Al669       O679   1.894       .  S
Al669       O674   1.781       .  S
O670        C677   1.257       .  A
O670       Al678   1.872       .  S
O671        C680   1.259       .  A
O671       Al678   1.882       .  S
O672       Al678   1.927       .  S
O673        C680   1.268       .  A
O674       Al678   1.774       .  S
O675        C676   1.260       .  A
C676       C1099   1.468       .  S
C677        C759   1.471       .  S
C680        C706   1.477       .  S
C681        O682   1.261       .  A
C681       C1056   1.486       .  S
O683        C698   1.269       .  A
O683       Al691   1.947       .  S
C684        O694   1.267       .  A
C684        O685   1.259       .  A
C684        C846   1.483       .  S
O685       Al687   1.884       .  S
O686        C688   1.268       .  A
O686       Al687   1.947       .  S
Al687       O695   1.949       .  S
Al687       O697   1.866       .  S
Al687       O696   1.772       .  S
C688        O701   1.261       .  A
C688        C949   1.483       .  S
O689        C699   1.268       .  A
O689       Al691   1.937       .  S
O690        C703   1.267       .  A
O690       Al700   1.938       .  S
Al691       O704   1.892       .  S
Al691       O701   1.889       .  S
Al691       O696   1.774       .  S
O692        C699   1.256       .  A
O692       Al700   1.876       .  S
O693        C702   1.259       .  A
O693       Al700   1.876       .  S
O694       Al700   1.930       .  S
O695        C702   1.270       .  A
O696       Al700   1.773       .  S
O697        C698   1.258       .  A
C698       C1079   1.469       .  S
C699        C719   1.471       .  S
C702        C709   1.485       .  S
C703        O704   1.264       .  A
C703       C1149   1.484       .  S
C705        C706   1.405       .  A
C705        C710   1.406       .  A
C705        H712   1.083       .  S
C706        C707   1.404       .  A
C707        C708   1.396       .  A
C707        F714   1.358       .  S
C708        C709   1.407       .  A
C708        H713   1.083       .  S
C709        C710   1.409       .  A
C710        F711   1.357       .  S
C715        C716   1.404       .  A
C715        C720   1.396       .  A
C715        H722   1.083       .  S
C716        C717   1.407       .  A
C717        C718   1.393       .  A
C717        F724   1.358       .  S
C718        C719   1.403       .  A
C718        H723   1.084       .  S
C719        C720   1.408       .  A
C720        F721   1.358       .  S
C725        C726   1.403       .  A
C725        C730   1.404       .  A
C725        H732   1.083       .  S
C726        C727   1.401       .  A
C727        C728   1.395       .  A
C727        F734   1.358       .  S
C728        C729   1.408       .  A
C728        H733   1.083       .  S
C729        C730   1.411       .  A
C730        F731   1.357       .  S
C735        C736   1.404       .  A
C735        C740   1.392       .  A
C735        H742   1.084       .  S
C736        C737   1.406       .  A
C737        C738   1.391       .  A
C737        F744   1.358       .  S
C738        C739   1.404       .  A
C738        H743   1.083       .  S
C739        C740   1.407       .  A
C740        F741   1.358       .  S
C745        C746   1.404       .  A
C745        C750   1.402       .  A
C745        H752   1.083       .  S
C746        C747   1.408       .  A
C747        C748   1.396       .  A
C747        F754   1.358       .  S
C748        C749   1.404       .  A
C748        H753   1.083       .  S
C749        C750   1.408       .  A
C750        F751   1.357       .  S
C755        C756   1.406       .  A
C755        C760   1.393       .  A
C755        H762   1.084       .  S
C756        C757   1.407       .  A
C757        C758   1.392       .  A
C757        F764   1.358       .  S
C758        C759   1.405       .  A
C758        H763   1.083       .  S
C759        C760   1.406       .  A
C760        F761   1.358       .  S
C765        C766   1.403   1_554  A
C765        C770   1.394       .  A
C765        H772   1.084       .  S
C766        C767   1.407   1_655  A
C767        C768   1.395       .  A
C767        F774   1.358       .  S
C768        C769   1.404   1_556  A
C768        H773   1.084       .  S
C769        C770   1.407   1_455  A
C770        F771   1.358       .  S
C775        C776   1.403       .  A
C775        C780   1.402       .  A
C775        H782   1.083       .  S
C776        C777   1.401       .  A
C777        C778   1.391       .  A
C777        F784   1.358       .  S
C778        C779   1.406       .  A
C778        H783   1.083       .  S
C779        C780   1.409       .  A
C780        F781   1.357       .  S
C785        C786   1.406       .  A
C785        C790   1.400       .  A
C785        H792   1.083       .  S
C786        C787   1.410       .  A
C787        C788   1.385       .  A
C787        F794   1.358       .  S
C788        C789   1.400       .  A
C788        H793   1.084       .  S
C789        C790   1.406       .  A
C790        F791   1.357       .  S
C795        C796   1.407   1_556  A
C795        C800   1.400       .  A
C795        H802   1.083       .  S
C796        C797   1.410       .  A
C797        C798   1.399       .  A
C797        F804   1.358       .  S
C798        C799   1.405   1_554  A
C798        H803   1.083       .  S
C799        C800   1.407       .  A
C800        F801   1.357       .  S
C805        C806   1.405       .  A
C805        C810   1.387       .  A
C805        H812   1.084       .  S
C806        C807   1.408       .  A
C807        C808   1.402       .  A
C807        F814   1.357       .  S
C808        C809   1.405       .  A
C808        H813   1.083       .  S
C809        C810   1.403       .  A
C810        F811   1.359       .  S
C815        C816   1.406       .  A
C815        C820   1.398       .  A
C815        H822   1.083       .  S
C816        C817   1.405       .  A
C817        C818   1.397       .  A
C817        F824   1.357       .  S
C818        C819   1.402       .  A
C818        H823   1.084       .  S
C819        C820   1.402       .  A
C820        F821   1.358       .  S
C825        C826   1.406       .  A
C825        C830   1.401       .  A
C825        H832   1.083       .  S
C826        C827   1.410       .  A
C827        C828   1.400       .  A
C827        F834   1.358       .  S
C828        C829   1.406       .  A
C828        H833   1.083       .  S
C829        C830   1.410       .  A
C830        F831   1.357       .  S
C835        C836   1.405       .  A
C835        C840   1.398       .  A
C835        H842   1.083       .  S
C836        C837   1.406       .  A
C837        C838   1.400       .  A
C837        F844   1.357       .  S
C838        C839   1.408       .  A
C838        H843   1.083       .  S
C839        C840   1.410       .  A
C840        F841   1.358       .  S
C845        C846   1.406       .  A
C845        C850   1.397       .  A
C845        H852   1.083       .  S
C846        C847   1.411       .  A
C847        C848   1.398       .  A
C847        F854   1.358       .  S
C848        C849   1.404       .  A
C848        H853   1.083       .  S
C849        C850   1.405       .  A
C850        F851   1.357       .  S
C855        C856   1.399   1_655  A
C855        C860   1.390       .  A
C855        H862   1.084       .  S
C856        C857   1.411       .  A
C857        C858   1.397       .  A
C857        F864   1.358       .  S
C858        C859   1.403       .  A
C858        H863   1.084       .  S
C859        C860   1.412   1_455  A
C860        F861   1.358       .  S
C865        C866   1.403       .  A
C865        C870   1.385       .  A
C865        H872   1.084       .  S
C866        C867   1.409       .  A
C867        C868   1.402       .  A
C867        F874   1.358       .  S
C868        C869   1.403       .  A
C868        H873   1.084       .  S
C869        C870   1.399       .  A
C870        F871   1.358       .  S
C875        C876   1.405       .  A
C875        C880   1.391       .  A
C875        H882   1.083       .  S
C876        C877   1.408       .  A
C877        C878   1.401       .  A
C877        F884   1.357       .  S
C878        C879   1.407       .  A
C878        H883   1.083       .  S
C879        C880   1.406       .  A
C880        F881   1.358       .  S
C885        C886   1.407       .  A
C885        C890   1.395       .  A
C885        H892   1.083       .  S
C886        C887   1.409       .  A
C887        C888   1.401       .  A
C887        F894   1.357       .  S
C888        C889   1.405       .  A
C888        H893   1.083       .  S
C889        C890   1.406       .  A
C890        F891   1.357       .  S
C895        C896   1.404       .  A
C895        C900   1.384       .  A
C895        H902   1.083       .  S
C896        C897   1.408       .  A
C897        C898   1.402       .  A
C897        F904   1.357       .  S
C898        C899   1.407       .  A
C898        H903   1.083       .  S
C899        C900   1.406       .  A
C900        F901   1.358       .  S
C905        C906   1.404       .  A
C905        C910   1.400       .  A
C905        H912   1.083       .  S
C906        C907   1.408       .  A
C907        C908   1.403       .  A
C907        F914   1.357       .  S
C908        C909   1.407       .  A
C908        H913   1.083       .  S
C909        C910   1.413       .  A
C910        F911   1.358       .  S
C915        C916   1.402       .  A
C915        C920   1.387       .  A
C915        H922   1.084       .  S
C916        C917   1.408       .  A
C917        C918   1.400       .  A
C917        F924   1.357       .  S
C918        C919   1.405       .  A
C918        H923   1.083       .  S
C919        C920   1.410       .  A
C920        F921   1.359       .  S
C925        C926   1.407       .  A
C925        C930   1.393       .  A
C925        H932   1.083       .  S
C926        C927   1.405       .  A
C927        C928   1.393       .  A
C927        F934   1.358       .  S
C928        C929   1.406       .  A
C928        H933   1.083       .  S
C929        C930   1.406       .  A
C930        F931   1.358       .  S
C935        C936   1.409       .  A
C935        C940   1.393       .  A
C935        H942   1.083       .  S
C936        C937   1.411       .  A
C937        C938   1.405       .  A
C937        F944   1.357   1_545  S
C938        C939   1.403       .  A
C938        H943   1.084   1_545  S
C939        C940   1.399       .  A
C940        F941   1.358       .  S
C945        C946   1.408       .  A
C945        C950   1.403       .  A
C945        H952   1.083       .  S
C946        C947   1.412       .  A
C947        C948   1.396       .  A
C947        F954   1.358       .  S
C948        C949   1.402       .  A
C948        H953   1.083       .  S
C949        C950   1.409       .  A
C950        F951   1.357       .  S
C955        C956   1.406       .  A
C955        C960   1.393       .  A
C955        H962   1.084       .  S
C956        C957   1.405       .  A
C957        C958   1.391       .  A
C957        F964   1.358       .  S
C958        C959   1.406       .  A
C958        H963   1.084       .  S
C959        C960   1.406       .  A
C960        F961   1.358       .  S
C965        C966   1.406       .  A
C965        C970   1.397       .  A
C965        H972   1.083       .  S
C966        C967   1.410       .  A
C967        C968   1.402       .  A
C967        F974   1.357       .  S
C968        C969   1.406       .  A
C968        H973   1.083       .  S
C969        C970   1.409       .  A
C970        F971   1.358       .  S
C975        C976   1.405       .  A
C975        C980   1.398       .  A
C975        H982   1.083       .  S
C976        C977   1.407       .  A
C977        C978   1.397       .  A
C977        F984   1.358       .  S
C978        C979   1.406       .  A
C978        H983   1.083       .  S
C979        C980   1.409       .  A
C980        F981   1.358       .  S
C985        C986   1.405       .  A
C985        C990   1.394       .  A
C985        H992   1.084       .  S
C986        C987   1.405   1_554  A
C987        C988   1.388       .  A
C987        F994   1.358       .  S
C988        C989   1.403       .  A
C988        H993   1.083       .  S
C989        C990   1.406   1_556  A
C990        F991   1.358       .  S
C995        C996   1.401       .  A
C995       C1000   1.390       .  A
C995       H1002   1.083       .  S
C996        C997   1.406       .  A
C997        C998   1.404       .  A
C997       F1004   1.357       .  S
C998        C999   1.406       .  A
C998       H1003   1.083       .  S
C999       C1000   1.406       .  A
C1000      F1001   1.358       .  S
C1005      C1006   1.408       .  A
C1005      C1010   1.396       .  A
C1005      H1012   1.083       .  S
C1006      C1007   1.410       .  A
C1007      C1008   1.402   1_556  A
C1007      F1014   1.357       .  S
C1008      C1009   1.405       .  A
C1008      H1013   1.084       .  S
C1009      C1010   1.404   1_554  A
C1010      F1011   1.358       .  S
C1015      C1016   1.404       .  A
C1015      C1020   1.395       .  A
C1015      H1022   1.083       .  S
C1016      C1017   1.410       .  A
C1017      C1018   1.398       .  A
C1017      F1024   1.358       .  S
C1018      C1019   1.405       .  A
C1018      H1023   1.083       .  S
C1019      C1020   1.409       .  A
C1020      F1021   1.357       .  S
C1025      C1026   1.408   1_554  A
C1025      C1030   1.401       .  A
C1025      H1032   1.083       .  S
C1026      C1027   1.408       .  A
C1027      C1028   1.396       .  A
C1027      F1034   1.357       .  S
C1028      C1029   1.405   1_556  A
C1028      H1033   1.084       .  S
C1029      C1030   1.408       .  A
C1030      F1031   1.357       .  S
C1035      C1036   1.405       .  A
C1035      C1040   1.396       .  A
C1035      H1042   1.083       .  S
C1036      C1037   1.408       .  A
C1037      C1038   1.395       .  A
C1037      F1044   1.357       .  S
C1038      C1039   1.404       .  A
C1038      H1043   1.083       .  S
C1039      C1040   1.409       .  A
C1040      F1041   1.358       .  S
C1045      C1046   1.405       .  A
C1045      C1050   1.393       .  A
C1045      H1052   1.083       .  S
C1046      C1047   1.407       .  A
C1047      C1048   1.400       .  A
C1047      F1054   1.357       .  S
C1048      C1049   1.402       .  A
C1048      H1053   1.083       .  S
C1049      C1050   1.403       .  A
C1050      F1051   1.358       .  S
C1055      C1056   1.406       .  A
C1055      C1060   1.397       .  A
C1055      H1062   1.083       .  S
C1056      C1057   1.412       .  A
C1057      C1058   1.402       .  A
C1057      F1064   1.358       .  S
C1058      C1059   1.405       .  A
C1058      H1063   1.083       .  S
C1059      C1060   1.408       .  A
C1060      F1061   1.357       .  S
C1065      C1066   1.405       .  A
C1065      C1070   1.396       .  A
C1065      H1072   1.083       .  S
C1066      C1067   1.409       .  A
C1067      C1068   1.397       .  A
C1067      F1074   1.357       .  S
C1068      C1069   1.403       .  A
C1068      H1073   1.083       .  S
C1069      C1070   1.409       .  A
C1070      F1071   1.358       .  S
C1075      C1076   1.405       .  A
C1075      C1080   1.389       .  A
C1075      H1082   1.083       .  S
C1076      C1077   1.407       .  A
C1077      C1078   1.402       .  A
C1077      F1084   1.357       .  S
C1078      C1079   1.405       .  A
C1078      H1083   1.083       .  S
C1079      C1080   1.403       .  A
C1080      F1081   1.359       .  S
C1085      C1086   1.407       .  A
C1085      C1090   1.398       .  A
C1085      H1092   1.083       .  S
C1086      C1087   1.411       .  A
C1087      C1088   1.399       .  A
C1087      F1094   1.358       .  S
C1088      C1089   1.404       .  A
C1088      H1093   1.084       .  S
C1089      C1090   1.407       .  A
C1090      F1091   1.357       .  S
C1095      C1096   1.403       .  A
C1095      C1100   1.398       .  A
C1095      H1102   1.083       .  S
C1096      C1097   1.404       .  A
C1097      C1098   1.384       .  A
C1097      F1104   1.358       .  S
C1098      C1099   1.403       .  A
C1098      H1103   1.083       .  S
C1099      C1100   1.408       .  A
C1100      F1101   1.357       .  S
C1105      C1106   1.409       .  A
C1105      C1110   1.391       .  A
C1105      H1112   1.083       .  S
C1106      C1107   1.403       .  A
C1107      C1108   1.391       .  A
C1107      F1114   1.357       .  S
C1108      C1109   1.409       .  A
C1108      H1113   1.083       .  S
C1109      C1110   1.402       .  A
C1110      F1111   1.358       .  S
C1115      C1116   1.401       .  A
C1115      C1120   1.401       .  A
C1115      H1122   1.082   1_565  S
C1116      C1117   1.401       .  A
C1117      C1118   1.392       .  A
C1117      F1124   1.358       .  S
C1118      C1119   1.407       .  A
C1118      H1123   1.083       .  S
C1119      C1120   1.409       .  A
C1120      F1121   1.357   1_565  S
C1125      C1126   1.404       .  A
C1125      C1130   1.394       .  A
C1125      H1132   1.083       .  S
C1126      C1127   1.405       .  A
C1127      C1128   1.400       .  A
C1127      F1134   1.357       .  S
C1128      C1129   1.408       .  A
C1128      H1133   1.083       .  S
C1129      C1130   1.409       .  A
C1130      F1131   1.358       .  S
C1135      C1136   1.407       .  A
C1135      C1140   1.394       .  A
C1135      H1142   1.083       .  S
C1136      C1137   1.405       .  A
C1137      C1138   1.395       .  A
C1137      F1144   1.358       .  S
C1138      C1139   1.408       .  A
C1138      H1143   1.083       .  S
C1139      C1140   1.405       .  A
C1140      F1141   1.358       .  S
C1145      C1146   1.407       .  A
C1145      C1150   1.403       .  A
C1145      H1152   1.083       .  S
C1146      C1147   1.409       .  A
C1147      C1148   1.395       .  A
C1147      F1154   1.358       .  S
C1148      C1149   1.405       .  A
C1148      H1153   1.083       .  S
C1149      C1150   1.409       .  A
C1150      F1151   1.357       .  S
C1155      C1156   1.406       .  A
C1155      C1160   1.395       .  A
C1155      H1162   1.084       .  S
C1156      C1157   1.406       .  A
C1157      C1158   1.400       .  A
C1157      F1164   1.357       .  S
C1158      C1159   1.408       .  A
C1158      H1163   1.083       .  S
C1159      C1160   1.408       .  A
C1160      F1161   1.358       .  S
C1165      C1166   1.403       .  A
C1165      C1170   1.400       .  A
C1165      H1172   1.084       .  S
C1166      C1167   1.408       .  A
C1167      C1168   1.395       .  A
C1167      F1174   1.358       .  S
C1168      C1169   1.398       .  A
C1168      H1173   1.084       .  S
C1169      C1170   1.405       .  A
C1170      F1171   1.358       .  S
C1175      C1176   1.405       .  A
C1175      C1180   1.399       .  A
C1175      H1182   1.083       .  S
C1176      C1177   1.401       .  A
C1177      C1178   1.396       .  A
C1177      F1184   1.358       .  S
C1178      C1179   1.410       .  A
C1178      H1183   1.083       .  S
C1179      C1180   1.408       .  A
C1180      F1181   1.357       .  S
C1185      C1186   1.406       .  A
C1185      C1190   1.397       .  A
C1185      H1192   1.083       .  S
C1186      C1187   1.408       .  A
C1187      C1188   1.398       .  A
C1187      F1194   1.357       .  S
C1188      C1189   1.405       .  A
C1188      H1193   1.083       .  S
C1189      C1190   1.408       .  A
C1190      F1191   1.358       .  S
C1195      C1196   1.401       .  A
C1195      C1200   1.384       .  A
C1195      H1202   1.084       .  S
C1196      C1197   1.408       .  A
C1197      C1198   1.404       .  A
C1197      F1204   1.357       .  S
C1198      C1199   1.407       .  A
C1198      H1203   1.083       .  S
C1199      C1200   1.409       .  A
C1200      F1201   1.358       .  S
C1205      C1206   1.404   1_455  A
C1205      C1210   1.392       .  A
C1205      H1212   1.084       .  S
C1206      C1207   1.408       .  A
C1207      C1208   1.395       .  A
C1207      F1214   1.358       .  S
C1208      C1209   1.404       .  A
C1208      H1213   1.084       .  S
C1209      C1210   1.406   1_655  A
C1210      F1211   1.358       .  S
C1215      C1216   1.405       .  A
C1215      C1220   1.398       .  A
C1215      H1222   1.083       .  S
C1216      C1217   1.413       .  A
C1217      C1218   1.399       .  A
C1217      F1224   1.357       .  S
C1218      C1219   1.402       .  A
C1218      H1223   1.083       .  S
C1219      C1220   1.409       .  A
C1220      F1221   1.358       .  S
C1225      C1226   1.405       .  A
C1225      C1230   1.386       .  A
C1225      H1232   1.083       .  S
C1226      C1227   1.409       .  A
C1227      C1228   1.403       .  A
C1227      F1234   1.357       .  S
C1228      C1229   1.407       .  A
C1228      H1233   1.083       .  S
C1229      C1230   1.405       .  A
C1230      F1231   1.358       .  S
C1235      C1236   1.401   1_554  A
C1235      C1240   1.392       .  A
C1235      H1242   1.084       .  S
C1236      C1237   1.408       .  A
C1237      C1238   1.394       .  A
C1237      F1244   1.358       .  S
C1238      C1239   1.403   1_556  A
C1238      H1243   1.084       .  S
C1239      C1240   1.407       .  A
C1240      F1241   1.358       .  S
C1245      C1246   1.401       .  A
C1245      C1250   1.401       .  A
C1245      H1252   1.083   1_565  S
C1246      C1247   1.401       .  A
C1247      C1248   1.389       .  A
C1247      F1254   1.358       .  S
C1248      C1249   1.403       .  A
C1248      H1253   1.083       .  S
C1249      C1250   1.410       .  A
C1250      F1251   1.358   1_565  S
C1255      C1256   1.404       .  A
C1255      C1260   1.397   1_556  A
C1255      H1262   1.083       .  S
C1256      C1257   1.408   1_556  A
C1257      C1258   1.399       .  A
C1257      F1264   1.358       .  S
C1258      C1259   1.407       .  A
C1258      H1263   1.083       .  S
C1259      C1260   1.410       .  A
C1260      F1261   1.357   1_554  S
C1265      C1266   1.405       .  A
C1265      C1270   1.400       .  A
C1265      H1272   1.083       .  S
C1266      C1267   1.403       .  A
C1267      C1268   1.386       .  A
C1267      F1274   1.357       .  S
C1268      C1269   1.407       .  A
C1268      H1273   1.083       .  S
C1269      C1270   1.406       .  A
C1270      F1271   1.357       .  S
C1275      C1276   1.408       .  A
C1275      C1280   1.402       .  A
C1275      H1282   1.083   1_565  S
C1276      C1277   1.407       .  A
C1277      C1278   1.397       .  A
C1277      F1284   1.357       .  S
C1278      C1279   1.407       .  A
C1278      H1283   1.083       .  S
C1279      C1280   1.409       .  A
C1280      F1281   1.358       .  S
C1285      C1286   1.408       .  A
C1285      C1290   1.401       .  A
C1285      H1292   1.083       .  S
C1286      C1287   1.408       .  A
C1287      C1288   1.397       .  A
C1287      F1294   1.357       .  S
C1288      C1289   1.407       .  A
C1288      H1293   1.083       .  S
C1289      C1290   1.409       .  A
C1290      F1291   1.357       .  S
C1295      C1296   1.406       .  A
C1295      C1300   1.397       .  A
C1295      H1302   1.083       .  S
C1296      C1297   1.408       .  A
C1297      C1298   1.399       .  A
C1297      F1304   1.357       .  S
C1298      C1299   1.406       .  A
C1298      H1303   1.083       .  S
C1299      C1300   1.408       .  A
C1300      F1301   1.358       .  S
C1305      C1306   1.407       .  A
C1305      C1310   1.403       .  A
C1305      H1312   1.083       .  S
C1306      C1307   1.404       .  A
C1307      C1308   1.383       .  A
C1307      F1314   1.359       .  S
C1308      C1309   1.405       .  A
C1308      H1313   1.083       .  S
C1309      C1310   1.408       .  A
C1310      F1311   1.357       .  S
C1315      C1316   1.405       .  A
C1315      C1320   1.403       .  A
C1315      H1322   1.084       .  S
C1316      C1317   1.407       .  A
C1317      C1318   1.392       .  A
C1317      F1324   1.358       .  S
C1318      C1319   1.401       .  A
C1318      H1323   1.084       .  S
C1319      C1320   1.407       .  A
C1320      F1321   1.356       .  S
C1325      C1326   1.406       .  A
C1325      C1330   1.397       .  A
C1325      H1332   1.083       .  S
C1326      C1327   1.407       .  A
C1327      C1328   1.399       .  A
C1327      F1334   1.357       .  S
C1328      C1329   1.407       .  A
C1328      H1333   1.083   1_565  S
C1329      C1330   1.409       .  A
C1330      F1331   1.357       .  S
C1335      C1336   1.402       .  A
C1335      C1340   1.397       .  A
C1335      H1342   1.083       .  S
C1336      C1337   1.407       .  A
C1337      C1338   1.399       .  A
C1337      F1344   1.358       .  S
C1338      C1339   1.406       .  A
C1338      H1343   1.083       .  S
C1339      C1340   1.411       .  A
C1340      F1341   1.358       .  S
C1345      C1346   1.405       .  A
C1345      C1350   1.396       .  A
C1345      H1352   1.083       .  S
C1346      C1347   1.406       .  A
C1347      C1348   1.396       .  A
C1347      F1354   1.358       .  S
C1348      C1349   1.406       .  A
C1348      H1353   1.083       .  S
C1349      C1350   1.408       .  A
C1350      F1351   1.357       .  S
C1355      C1356   1.406       .  A
C1355      C1360   1.403       .  A
C1355      H1362   1.083       .  S
C1356      C1357   1.405       .  A
C1357      C1358   1.388       .  A
C1357      F1364   1.359       .  S
C1358      C1359   1.405       .  A
C1358      H1363   1.083       .  S
C1359      C1360   1.408       .  A
C1360      F1361   1.357       .  S
C1365      C1366   1.405   1_556  A
C1365      C1370   1.397       .  A
C1365      H1372   1.083       .  S
C1366      C1367   1.410       .  A
C1367      C1368   1.398       .  A
C1367      F1374   1.358       .  S
C1368      C1369   1.406   1_554  A
C1368      H1373   1.083       .  S
C1369      C1370   1.408       .  A
C1370      F1371   1.357       .  S
C1375      C1376   1.408       .  A
C1375      C1380   1.398       .  A
C1375      H1382   1.083       .  S
C1376      C1377   1.408       .  A
C1377      C1378   1.397       .  A
C1377      F1384   1.357       .  S
C1378      C1379   1.405       .  A
C1378      H1383   1.083       .  S
C1379      C1380   1.405       .  A
C1380      F1381   1.358       .  S
C1385      C1386   1.408       .  A
C1385      C1390   1.402       .  A
C1385      H1392   1.083       .  S
C1386      C1387   1.409   1_556  A
C1387      C1388   1.395       .  A
C1387      F1394   1.357       .  S
C1388      C1389   1.405       .  A
C1388      H1393   1.083       .  S
C1389      C1390   1.409   1_554  A
C1390      F1391   1.358   1_545  S
C1395      C1396   1.405       .  A
C1395      C1400   1.399       .  A
C1395      H1402   1.083       .  S
C1396      C1397   1.410       .  A
C1397      C1398   1.387       .  A
C1397      F1404   1.358       .  S
C1398      C1399   1.400       .  A
C1398      H1403   1.084       .  S
C1399      C1400   1.405       .  A
C1400      F1401   1.357       .  S
C1405      C1406   1.406       .  A
C1405      C1410   1.398   1_565  A
C1405      H1412   1.084       .  S
C1406      C1407   1.407       .  A
C1407      C1408   1.392   1_565  A
C1407      F1414   1.358       .  S
C1408      C1409   1.404       .  A
C1408      H1413   1.083       .  S
C1409      C1410   1.409       .  A
C1410      F1411   1.358       .  S
C1415      C1416   1.407       .  A
C1415      C1420   1.403       .  A
C1415      H1422   1.083       .  S
C1416      C1417   1.409       .  A
C1417      C1418   1.393       .  A
C1417      F1424   1.358       .  S
C1418      C1419   1.401       .  A
C1418      H1423   1.084       .  S
C1419      C1420   1.405       .  A
C1420      F1421   1.357       .  S
C1425      C1426   1.406       .  A
C1425      C1430   1.396       .  A
C1425      H1432   1.083       .  S
C1426      C1427   1.406       .  A
C1427      C1428   1.400       .  A
C1427      F1434   1.357       .  S
C1428      C1429   1.408       .  A
C1428      H1433   1.083       .  S
C1429      C1430   1.409       .  A
C1430      F1431   1.358       .  S
C1435      C1436   1.405       .  A
C1435      C1440   1.401       .  A
C1435      H1442   1.083       .  S
C1436      C1437   1.407       .  A
C1437      C1438   1.394       .  A
C1437      F1444   1.358       .  S
C1438      C1439   1.404       .  A
C1438      H1443   1.083       .  S
C1439      C1440   1.411       .  A
C1440      F1441   1.358       .  S
C1445      C1446   1.407       .  A
C1445      C1450   1.399       .  A
C1445      H1452   1.083       .  S
C1446      C1447   1.410       .  A
C1447      C1448   1.400       .  A
C1447      F1454   1.358       .  S
C1448      C1449   1.406       .  A
C1448      H1453   1.083       .  S
C1449      C1450   1.408       .  A
C1450      F1451   1.357   1_545  S
C1455      C1456   1.407       .  A
C1455      C1460   1.403       .  A
C1455      H1462   1.083       .  S
C1456      C1457   1.407       .  A
C1457      C1458   1.385       .  A
C1457      F1464   1.358       .  S
C1458      C1459   1.404       .  A
C1458      H1463   1.083       .  S
C1459      C1460   1.408       .  A
C1460      F1461   1.357       .  S
C1465      C1466   1.405       .  A
C1465      C1470   1.402       .  A
C1465      H1472   1.083   1_565  S
C1466      C1467   1.407       .  A
C1467      C1468   1.400       .  A
C1467      F1474   1.357       .  S
C1468      C1469   1.407       .  A
C1468      H1473   1.083       .  S
C1469      C1470   1.412       .  A
C1470      F1471   1.358       .  S
C1475      C1476   1.405       .  A
C1475      C1480   1.398       .  A
C1475      H1482   1.083       .  S
C1476      C1477   1.408       .  A
C1477      C1478   1.396       .  A
C1477      F1484   1.358       .  S
C1478      C1479   1.406       .  A
C1478      H1483   1.083       .  S
C1479      C1480   1.409       .  A
C1480      F1481   1.357       .  S
C1485      C1486   1.404       .  A
C1485      C1490   1.393       .  A
C1485      H1492   1.083       .  S
C1486      C1487   1.410       .  A
C1487      C1488   1.400       .  A
C1487      F1494   1.358       .  S
C1488      C1489   1.406       .  A
C1488      H1493   1.083       .  S
C1489      C1490   1.406       .  A
C1490      F1491   1.357       .  S
C1495      C1496   1.399       .  A
C1495      C1500   1.383       .  A
C1495      H1502   1.083       .  S
C1496      C1497   1.406       .  A
C1497      C1498   1.400       .  A
C1497      F1504   1.357       .  S
C1498      C1499   1.406       .  A
C1498      H1503   1.082       .  S
C1499      C1500   1.410       .  A
C1500      F1501   1.358       .  S
C1505      C1506   1.407       .  A
C1505      C1510   1.394   1_545  A
C1505      H1512   1.083       .  S
C1506      C1507   1.405   1_556  A
C1507      C1508   1.393   1_545  A
C1507      F1514   1.358       .  S
C1508      C1509   1.407       .  A
C1508      H1513   1.083       .  S
C1509      C1510   1.406   1_554  A
C1510      F1511   1.358       .  S
C1515      C1516   1.404       .  A
C1515      C1520   1.388       .  A
C1515      H1522   1.083       .  S
C1516      C1517   1.408       .  A
C1517      C1518   1.403       .  A
C1517      F1524   1.357       .  S
C1518      C1519   1.404       .  A
C1518      H1523   1.083       .  S
C1519      C1520   1.401       .  A
C1520      F1521   1.358       .  S
C1525      C1526   1.408       .  A
C1525      C1530   1.402       .  A
C1525      H1532   1.083       .  S
C1526      C1527   1.409       .  A
C1527      C1528   1.396   1_554  A
C1527      F1534   1.357   1_554  S
C1528      C1529   1.405       .  A
C1528      H1533   1.083       .  S
C1529      C1530   1.409   1_556  A
C1530      F1531   1.358   1_565  S
C1535      C1536   1.405       .  A
C1535      C1540   1.397       .  A
C1535      H1542   1.083       .  S
C1536      C1537   1.409   1_554  A
C1537      C1538   1.402       .  A
C1537      F1544   1.357       .  S
C1538      C1539   1.407       .  A
C1538      H1543   1.083       .  S
C1539      C1540   1.410   1_556  A
C1540      F1541   1.358       .  S
C1545      C1546   1.406       .  A
C1545      C1550   1.398       .  A
C1545      H1552   1.083       .  S
C1546      C1547   1.408       .  A
C1547      C1548   1.398       .  A
C1547      F1554   1.357       .  S
C1548      C1549   1.405       .  A
C1548      H1553   1.083       .  S
C1549      C1550   1.408       .  A
C1550      F1551   1.358       .  S
C1555      C1556   1.404       .  A
C1555      C1560   1.385       .  A
C1555      H1562   1.083       .  S
C1556      C1557   1.408       .  A
C1557      C1558   1.400       .  A
C1557      F1564   1.357       .  S
C1558      C1559   1.404       .  A
C1558      H1563   1.083       .  S
C1559      C1560   1.403       .  A
C1560      F1561   1.358       .  S
C1565      C1566   1.404       .  A
C1565      C1570   1.394   1_565  A
C1565      H1572   1.084       .  S
C1566      C1567   1.408       .  A
C1567      C1568   1.394   1_565  A
C1567      F1574   1.358       .  S
C1568      C1569   1.403       .  A
C1568      H1573   1.084       .  S
C1569      C1570   1.408       .  A
C1570      F1571   1.358       .  S
C1575      C1576   1.408       .  A
C1575      C1580   1.403       .  A
C1575      H1582   1.083       .  S
C1576      C1577   1.412       .  A
C1577      C1578   1.398       .  A
C1577      F1584   1.358       .  S
C1578      C1579   1.403       .  A
C1578      H1583   1.084       .  S
C1579      C1580   1.408       .  A
C1580      F1581   1.357       .  S
C1585      C1586   1.403       .  A
C1585      C1590   1.395       .  A
C1585      H1592   1.083       .  S
C1586      C1587   1.410       .  A
C1587      C1588   1.399       .  A
C1587      F1594   1.358       .  S
C1588      C1589   1.405       .  A
C1588      H1593   1.083       .  S
C1589      C1590   1.409       .  A
C1590      F1591   1.357       .  S
C1595      C1596   1.406       .  A
C1595      C1600   1.398       .  A
C1595      H1602   1.083       .  S
C1596      C1597   1.411       .  A
C1597      C1598   1.395       .  A
C1597      F1604   1.357       .  S
C1598      C1599   1.401       .  A
C1598      H1603   1.084   1_545  S
C1599      C1600   1.407       .  A
C1600      F1601   1.358       .  S
C1605      C1606   1.398       .  A
C1605      C1610   1.385       .  A
C1605      H1612   1.084       .  S
C1606      C1607   1.406       .  A
C1607      C1608   1.397       .  A
C1607      F1614   1.357       .  S
C1608      C1609   1.404       .  A
C1608      H1613   1.083       .  S
C1609      C1610   1.411       .  A
C1610      F1611   1.358       .  S
C1615      C1616   1.405   1_455  A
C1615      C1620   1.392   1_545  A
C1615      H1622   1.083       .  S
C1616      C1617   1.408       .  A
C1617      C1618   1.395   1_545  A
C1617      F1624   1.358       .  S
C1618      C1619   1.406       .  A
C1618      H1623   1.083       .  S
C1619      C1620   1.406   1_655  A
C1620      F1621   1.358       .  S
C1625      C1626   1.404       .  A
C1625      C1630   1.396       .  A
C1625      H1632   1.083       .  S
C1626      C1627   1.408       .  A
C1627      C1628   1.405       .  A
C1627      F1634   1.357       .  S
C1628      C1629   1.406       .  A
C1628      H1633   1.083       .  S
C1629      C1630   1.407       .  A
C1630      F1631   1.358       .  S
C1635      C1636   1.407       .  A
C1635      C1640   1.402       .  A
C1635      H1642   1.083       .  S
C1636      C1637   1.407       .  A
C1637      C1638   1.400       .  A
C1637      F1644   1.357       .  S
C1638      C1639   1.409       .  A
C1638      H1643   1.083       .  S
C1639      C1640   1.410       .  A
C1640      F1641   1.357       .  S
C1645      C1646   1.406       .  A
C1645      C1650   1.397       .  A
C1645      H1652   1.083       .  S
C1646      C1647   1.410       .  A
C1647      C1648   1.398       .  A
C1647      F1654   1.357       .  S
C1648      C1649   1.404       .  A
C1648      H1653   1.083       .  S
C1649      C1650   1.407       .  A
C1650      F1651   1.357       .  S
C1655      C1656   1.406       .  A
C1655      C1660   1.395       .  A
C1655      H1662   1.083       .  S
C1656      C1657   1.410       .  A
C1657      C1658   1.399       .  A
C1657      F1664   1.357       .  S
C1658      C1659   1.405       .  A
C1658      H1663   1.083   1_545  S
C1659      C1660   1.407       .  A
C1660      F1661   1.358       .  S
