geometry optimzed in LAMMPS
_audit_creation_date              2020-11-30 
_audit_creation_method            'lammps2cif' 
_symmetry_space_group_name_H-M    'P1' 
_symmetry_Int_Tables_number       1 
_symmetry_cell_setting            triclinic 
loop_ 
_symmetry_equiv_pos_as_xyz 
  x,y,z 
_cell_length_a                    42.35695857083495 
_cell_length_b                    36.2705823211722 
_cell_length_c                    44.54169626319567 
_cell_angle_alpha                 90.02991712780216 
_cell_angle_beta                  103.11594867401777 
_cell_angle_gamma                 89.97890487167847 
loop_ 
_atom_site_label 
_atom_site_type_symbol 
_atom_site_fract_x 
_atom_site_fract_y 
_atom_site_fract_z 
_atom_site_charge 
Fe1        Fe  0.25797772  0.64836738  0.37859694     1.65780
Fe2        Fe  0.18180048  0.64444269  0.33651448     1.73250
Fe3        Fe  0.20962446  0.72202259  0.37588100     1.54410
O4          O  0.23601210  0.71318602  0.42118962    -0.83150
O5          O  0.17737039  0.68416433  0.30387949    -0.81450
O6          O  0.25372682  0.65493542  0.42320014    -0.85650
O7          O  0.28441908  0.69714486  0.38182670    -0.80510
O8          O  0.16907553  0.70705912  0.39042252    -0.82280
O9          O  0.21389043  0.61801212  0.31420797    -0.85030
C10         C  0.27865722  0.73013257  0.37255623     0.95740
C11         C  0.24761168  0.68440876  0.43631469     1.03180
O12         O  0.21632202  0.67180686  0.36373474    -1.14010
O13         O  0.18461513  0.60189741  0.36764111    -0.76440
O14         O  0.23818874  0.59589339  0.37849566    -0.79930
O15         O  0.25002353  0.74180331  0.36255524    -0.80620
C16         C  0.21002070  0.58273988  0.37703938     0.94640
O17         O  0.26267328  0.64191162  0.33380147    -0.78580
O18         O  0.14440858  0.66968076  0.35296094    -0.83770
C19         C  0.17280453  0.71834961  0.30653427     0.97260
C20         C  0.14349488  0.69325790  0.37397515     1.03180
O21         O  0.18152977  0.73550688  0.33214674    -0.79410
C22         C  0.24232412  0.62689174  0.31174456     1.01480
Fe23       Fe  0.26141547  0.64834587  0.12699322     1.65780
Fe24       Fe  0.33758546  0.64402816  0.16910124     1.73250
Fe25       Fe  0.30993553  0.72180007  0.12993924     1.54410
O26         O  0.28344276  0.71320294  0.08462963    -0.83150
O27         O  0.34232852  0.68376568  0.20181078    -0.81450
O28         O  0.26589479  0.65488096  0.08245256    -0.85650
O29         O  0.23511027  0.69727804  0.12382127    -0.80510
O30         O  0.35045532  0.70672816  0.11533659    -0.82280
O31         O  0.30537930  0.61788789  0.19142285    -0.85030
C32         C  0.24098228  0.73016361  0.13335382     0.95740
C33         C  0.27203249  0.68439542  0.06944483     1.03180
O34         O  0.30313879  0.67158033  0.14196208    -1.14010
O35         O  0.33455862  0.60143517  0.13793922    -0.76440
O36         O  0.28096831  0.59575769  0.12701933    -0.79930
O37         O  0.26965088  0.74164685  0.14344336    -0.80620
C38         C  0.30907802  0.58244674  0.12844615     0.94640
O39         O  0.25662187  0.64187791  0.17175481    -0.78580
O40         O  0.37501860  0.66897239  0.15256189    -0.83770
C41         C  0.34684413  0.71796576  0.19919908     0.97260
C42         C  0.37599072  0.69260249  0.13161995     1.03180
O43         O  0.33806344  0.73513807  0.17362704    -0.79410
C44         C  0.27692740  0.62682539  0.19382874     1.01480
Fe45       Fe  0.50779896  0.86020818  0.37918585     1.65780
Fe46       Fe  0.43182608  0.86413632  0.33672070     1.73250
Fe47       Fe  0.45981562  0.78631539  0.37562704     1.54410
O48         O  0.50020056  0.76716119  0.36199179    -0.83150
O49         O  0.39450900  0.83884701  0.35320142    -0.81450
O50         O  0.03436894  0.81139696  0.38263905    -0.85650
O51         O  0.50261898  0.85359110  0.42359758    -0.80510
O52         O  0.43173124  0.77307283  0.33192991    -0.82280
O53         O  0.43454364  0.90665605  0.36793571    -0.85030
C54         C  0.49699200  0.82363744  0.43626751     0.95740
C55         C  0.02876423  0.77864360  0.37265210     1.03180
O56         O  0.46629149  0.83670809  0.36387523    -1.14010
O57         O  0.46410865  0.89046765  0.31459294    -0.76440
O58         O  0.51292949  0.86669308  0.33445291    -0.79930
O59         O  0.48642528  0.79466365  0.42093949    -0.80620
C60         C  0.49258283  0.88150846  0.31224161     0.94640
O61         O  0.48807762  0.91268813  0.37891070    -0.78580
O62         O  0.42730963  0.82454838  0.30389102    -0.83770
C63         C  0.39359967  0.81503773  0.37403918     0.97260
C64         C  0.42290849  0.79031563  0.30640568     1.03180
O65         O  0.41916533  0.80086388  0.39026053    -0.79410
C66         C  0.45991115  0.92583138  0.37741109     1.01480
Fe67       Fe  0.01102799  0.85944645  0.12703675     1.65780
Fe68       Fe  0.08730995  0.86388735  0.16920931     1.73250
Fe69       Fe  0.06010926  0.78623710  0.12965099     1.54420
O70         O  0.01956453  0.76578527  0.14239050    -0.83150
O71         O  0.12505896  0.83893988  0.15310451    -0.81450
O72         O  0.48486005  0.81060141  0.12419378    -0.85650
O73         O  0.01453742  0.85260145  0.08216837    -0.80510
O74         O  0.08777101  0.77279995  0.17356145    -0.82280
O75         O  0.08436508  0.90637769  0.13803103    -0.85030
C76         C  0.02148297  0.82344702  0.06909358     0.95740
C77         C  0.99085090  0.77747170  0.13292021     1.03180
O78         O  0.05293181  0.83633288  0.14182209    -1.14010
O79         O  0.05514440  0.89026016  0.19142449    -0.76440
O80         O  0.00652545  0.86603995  0.17193850    -0.79930
O81         O  0.03431234  0.79520821  0.08425723    -0.80620
C82         C  0.02681562  0.88114487  0.19398324     0.94640
O83         O  0.03070905  0.91197375  0.12675242    -0.78580
O84         O  0.09175787  0.82414371  0.20184208    -0.83770
C85         C  0.12623999  0.81544120  0.13211961     0.97260
C86         C  0.09631688  0.78994807  0.19919980     1.03180
O87         O  0.10079747  0.80156260  0.11553043    -0.79410
C88         C  0.05886009  0.92528961  0.12832616     1.01480
Fe89       Fe  0.25727796  0.35972644  0.37770627     1.65780
Fe90       Fe  0.18096118  0.36404236  0.33585116     1.73250
Fe91       Fe  0.20859929  0.28638482  0.37520219     1.54410
O92         O  0.24886704  0.26624185  0.36180422    -0.83150
O93         O  0.14353541  0.33916699  0.35243475    -0.81450
O94         O  0.28351066  0.31082477  0.38069229    -0.85650
O95         O  0.25339793  0.35316717  0.42242582    -0.80510
O96         O  0.18047378  0.27291155  0.33154293    -0.82280
O97         O  0.18408294  0.40669081  0.36696399    -0.85030
C98         C  0.24712878  0.32379568  0.43556331     0.95740
C99         C  0.27756417  0.27781732  0.37154752     1.03180
O100        O  0.21546681  0.33653230  0.36300998    -1.14010
O101        O  0.21299144  0.39018356  0.31335507    -0.76440
O102        O  0.26174842  0.36615839  0.33284339    -0.79930
O103        O  0.23508094  0.29518660  0.42044662    -0.80620
C104        C  0.24137776  0.38119320  0.31082347     0.94640
O105        O  0.23769964  0.41229361  0.37783569    -0.78580
O106        O  0.17623609  0.32420840  0.30324231    -0.83770
C107        C  0.14256209  0.31563132  0.37343695     0.97260
C108        C  0.17176827  0.29001124  0.30592718     1.03180
O109        O  0.16810753  0.30162276  0.38978937    -0.79410
C110        C  0.20959997  0.42563054  0.37645251     1.01480
Fe111      Fe  0.26080517  0.35963302  0.12604358     1.65780
Fe112      Fe  0.33677045  0.36362069  0.16848515     1.73250
Fe113      Fe  0.30908672  0.28593841  0.12921708     1.54410
O114        O  0.26864368  0.26637090  0.14255555    -0.83150
O115        O  0.37424183  0.33839467  0.15215013    -0.81450
O116        O  0.23433953  0.31079901  0.12256264    -0.85650
O117        O  0.26571224  0.35313575  0.08162910    -0.80510
O118        O  0.33710952  0.27258132  0.17298218    -0.82280
O119        O  0.33409002  0.40613976  0.13734360    -0.85030
C120        C  0.27172092  0.32351766  0.06866293     0.95740
C121        C  0.24003771  0.27793054  0.13219372     1.03180
O122        O  0.30238324  0.33620168  0.14120559    -1.14010
O123        O  0.30443757  0.38999581  0.19055278    -0.76440
O124        O  0.25571500  0.36603180  0.17073398    -0.79930
O125        O  0.28273936  0.29458200  0.08385362    -0.80620
C126        C  0.27596556  0.38105180  0.19288010     0.94640
O127        O  0.28053428  0.41215238  0.12635508    -0.78580
O128        O  0.34112741  0.32395847  0.20117861    -0.83770
C129        C  0.37523400  0.31479076  0.13116801     0.97260
C130        C  0.34576163  0.28978033  0.19857456     1.03180
O131        O  0.34970870  0.30081042  0.11475229    -0.79410
C132        C  0.30870896  0.42531375  0.12789652     1.01480
Fe133      Fe  0.50754644  0.14871559  0.37803743     1.65780
Fe134      Fe  0.43129371  0.14427500  0.33587699     1.73250
Fe135      Fe  0.45849726  0.22191670  0.37544509     1.54420
O136        O  0.48439949  0.21297056  0.42081958    -0.83150
O137        O  0.42684304  0.18403503  0.30326369    -0.81450
O138        O  0.50393346  0.15548727  0.42285915    -0.85650
O139        O  0.03371250  0.19758231  0.38093393    -0.80510
O140        O  0.41782968  0.20654424  0.38960138    -0.82280
O141        O  0.46347246  0.11792988  0.31366180    -0.85030
C142        C  0.02772243  0.23069723  0.37215560     0.95740
C143        C  0.49711360  0.18466889  0.43596754     1.03180
O144        O  0.46566068  0.17183085  0.36325243    -1.14010
O145        O  0.43423549  0.10179417  0.36705627    -0.76440
O146        O  0.48788475  0.09617635  0.37828453    -0.79930
O147        O  0.49900709  0.24236130  0.36264040    -0.80620
C148        C  0.45973669  0.08288215  0.37676139     0.94640
O149        O  0.51208206  0.14217741  0.33315503    -0.78580
O150        O  0.39356282  0.16919217  0.35200303    -0.83770
C151        C  0.42224303  0.21822024  0.30592133     0.97260
C152        C  0.39238450  0.19266147  0.37300738     1.03180
O153        O  0.43077158  0.23535617  0.33156549    -0.79410
C154        C  0.49179708  0.12707408  0.31110784     1.01480
Fe155      Fe  0.01090791  0.14808803  0.12597328     1.65780
Fe156      Fe  0.08686464  0.14412153  0.16841117     1.73250
Fe157      Fe  0.05895449  0.22190136  0.12942310     1.54420
O158        O  0.03228302  0.21352754  0.08414376    -0.83150
O159        O  0.09134158  0.18375242  0.20119281    -0.81450
O160        O  0.01608915  0.15461382  0.08157526    -0.85650
O161        O  0.48440117  0.19694296  0.12247499    -0.80510
O162        O  0.09954648  0.20723442  0.11474506    -0.82280
O163        O  0.05456506  0.11784461  0.19055319    -0.85030
C164        C  0.99004700  0.22969546  0.13244906     0.95740
C165        C  0.02171019  0.18453120  0.06884840     1.03180
O166        O  0.05243070  0.17154580  0.14123552    -1.14010
O167        O  0.08412683  0.10155206  0.13723688    -0.76440
O168        O  0.03058661  0.09557351  0.12630042    -0.79930
O169        O  0.01862272  0.24114467  0.14310171    -0.80620
C170        C  0.05874103  0.08239233  0.12779536     0.94640
O171        O  0.00577440  0.14169431  0.17070024    -0.78580
O172        O  0.12419648  0.16937242  0.15190153    -0.83770
C173        C  0.09582105  0.21795864  0.19863164     0.97260
C174        C  0.12511070  0.19309763  0.13099749     1.03180
O175        O  0.08710960  0.23516269  0.17307976    -0.79410
C176        C  0.02609910  0.12684231  0.19290339     1.01480
C177        C  0.49329718  0.21491264  0.48588162    -0.14820
C178        C  0.50417777  0.18558194  0.47012042     0.07330
C179        C  0.02134133  0.15646572  0.48733777    -0.14820
C180        C  0.02692867  0.15629319  0.01944083    -0.14820
C181        C  0.01593130  0.18544225  0.03504014     0.07330
C182        C  0.49936020  0.21496265  0.01812303    -0.14820
H183        H  0.47985703  0.23764664  0.47331858     0.11320
H184        H  0.03027322  0.13358195  0.47601256     0.11320
H185        H  0.04006830  0.13345467  0.03216567     0.11320
H186        H  0.49055237  0.23761530  0.02982134     0.11320
C187        C  0.47638921  0.12027701  0.25366545    -0.14820
C188        C  0.50069132  0.12128660  0.28108973     0.07330
C189        C  0.03330091  0.12063491  0.27910108    -0.14820
C190        C  0.04142706  0.12017301  0.25033681    -0.14820
C191        C  0.01713322  0.12118665  0.22290540     0.07330
C192        C  0.48451734  0.12064288  0.22489186    -0.14820
H193        H  0.45101904  0.12115681  0.25441368     0.11320
H194        H  0.05254466  0.12150624  0.29978367     0.11320
H195        H  0.06680353  0.12096730  0.24960658     0.11320
H196        H  0.46527817  0.12152421  0.20420726     0.11320
C197        C  0.18405295  0.25820226  0.10701636    -0.14820
C198        C  0.21227289  0.25250679  0.13005031     0.07330
C199        C  0.21325617  0.22288208  0.15059236    -0.14820
C200        C  0.18553950  0.20120628  0.14953396    -0.14820
C201        C  0.15661727  0.20843851  0.12754714     0.07330
C202        C  0.15673750  0.23627382  0.10557734    -0.14820
H203        H  0.18285510  0.28022517  0.09037277     0.11320
H204        H  0.23488555  0.21764199  0.16836148     0.11320
H205        H  0.18624697  0.18020577  0.16694258     0.11320
H206        H  0.13505014  0.24264535  0.08821308     0.11320
C207        C  0.40688983  0.27165680  0.10571316    -0.14820
C208        C  0.40674238  0.29938829  0.12778995     0.07330
C209        C  0.43559699  0.30643133  0.14991486    -0.14820
C210        C  0.46327152  0.28466651  0.15099496    -0.14820
C211        C  0.46230452  0.25514385  0.13033199     0.07330
C212        C  0.43416137  0.24963822  0.10717000    -0.14820
H213        H  0.38524996  0.26543647  0.08824017     0.11320
H214        H  0.43627458  0.32734970  0.16740302     0.11320
H215        H  0.48485258  0.28976493  0.16885850     0.11320
H216        H  0.43298978  0.22770665  0.09042961     0.11320
C217        C  0.39017738  0.27207285  0.28081136    -0.14820
C218        C  0.40430122  0.23762907  0.27824756     0.07330
C219        C  0.39808402  0.21980635  0.24939523    -0.14820
C220        C  0.37801421  0.23603561  0.22365566    -0.14820
C221        C  0.36385106  0.27045415  0.22622956     0.07330
C222        C  0.37011243  0.28830530  0.25506961    -0.14820
H223        H  0.39406720  0.28613667  0.30280148     0.11320
H224        H  0.40854085  0.19308612  0.24670804     0.11320
H225        H  0.37411558  0.22196786  0.20166658     0.11320
H226        H  0.35965116  0.31502327  0.25775495     0.11320
C227        C  0.11096673  0.27235501  0.39875995    -0.14820
C228        C  0.11104296  0.30033726  0.37690775     0.07330
C229        C  0.08206030  0.30773811  0.35504314    -0.14820
C230        C  0.05432698  0.28606406  0.35397201    -0.14820
C231        C  0.05538789  0.25626254  0.37435019     0.07330
C232        C  0.08366160  0.25041648  0.39727954    -0.14820
H233        H  0.13268880  0.26584570  0.41603419     0.11320
H234        H  0.08131611  0.32887020  0.33773509     0.11320
H235        H  0.03264498  0.29141066  0.33629567     0.11320
H236        H  0.08490858  0.22824713  0.41380113     0.11320
C237        C  0.33330167  0.25767374  0.39688397    -0.14820
C238        C  0.30521201  0.25224173  0.37365090     0.07330
C239        C  0.30428728  0.22279041  0.35292998    -0.14820
C240        C  0.33199667  0.20104239  0.35402930    -0.14820
C241        C  0.36080298  0.20801194  0.37625907     0.07330
C242        C  0.36057063  0.23565288  0.39838778    -0.14820
H243        H  0.33442652  0.27956379  0.41365530     0.11320
H244        H  0.28274086  0.21777581  0.33500460     0.11320
H245        H  0.33138859  0.18019697  0.33649591     0.11320
H246        H  0.38215728  0.24182274  0.41594266     0.11320
C247        C  0.11966904  0.21980221  0.25519768    -0.14820
C248        C  0.11375331  0.23738774  0.22627681     0.07330
C249        C  0.12805662  0.27168900  0.22362928    -0.14820
C250        C  0.14796465  0.28806102  0.24938134    -0.14820
C251        C  0.15386519  0.27049818  0.27831061     0.07330
C252        C  0.13957208  0.23618717  0.28096179    -0.14820
H253        H  0.10905963  0.19319262  0.25792158     0.11320
H254        H  0.12440956  0.28554141  0.20157178     0.11320
H255        H  0.15857557  0.31466453  0.24663852     0.11320
H256        H  0.14322190  0.22234657  0.30302422     0.11320
C257        C  0.25305038  0.28993249  0.48583242    -0.14820
C258        C  0.25400012  0.32309382  0.46968165     0.07330
C259        C  0.26110473  0.35605836  0.48645384    -0.14820
C260        C  0.26666509  0.35601255  0.01853130    -0.14820
C261        C  0.26573078  0.32295566  0.03468065     0.07330
C262        C  0.25915212  0.28982728  0.01808222    -0.14820
H263        H  0.24768255  0.26407592  0.47357458     0.11320
H264        H  0.26198260  0.38209308  0.47477942     0.11320
H265        H  0.27197861  0.38191454  0.03075114     0.11320
H266        H  0.25823799  0.26396855  0.03000016     0.11320
C267        C  0.28288779  0.38820036  0.27894745    -0.14820
C268        C  0.25026436  0.38705124  0.28084393     0.07330
C269        C  0.22600588  0.38755823  0.25338867    -0.14820
C270        C  0.23422423  0.38711156  0.22466726    -0.14820
C271        C  0.26687422  0.38696809  0.22277730     0.07330
C272        C  0.29109566  0.38856876  0.25022958    -0.14820
H273        H  0.30208985  0.38774781  0.29967365     0.11320
H274        H  0.20063373  0.38629874  0.25408613     0.11320
H275        H  0.21504078  0.38579468  0.20395749     0.11320
H276        H  0.31649700  0.38812405  0.24956881     0.11320
C277        C  0.03350208  0.98452266  0.10673072    -0.14820
C278        C  0.06144532  0.96489476  0.12111349     0.07330
C279        C  0.09029899  0.98453277  0.13258233    -0.14820
C280        C  0.09028561  0.02318018  0.13244566    -0.14820
C281        C  0.06141908  0.04272194  0.12083161     0.07330
C282        C  0.03349212  0.02296788  0.10658656    -0.14820
H283        H  0.01100148  0.97022238  0.09724185     0.11320
H284        H  0.11226187  0.97018531  0.14372030     0.11320
H285        H  0.11222560  0.03762561  0.14348821     0.11320
H286        H  0.01097693  0.03719731  0.09699022     0.11320
C287        C  0.48509853  0.98525861  0.39867229    -0.14820
C288        C  0.45719450  0.96548625  0.38439550     0.07330
C289        C  0.42832629  0.98500571  0.37273808    -0.14820
C290        C  0.42830139  0.02365052  0.37256378    -0.14820
C291        C  0.45714533  0.04330211  0.38403683     0.07330
C292        C  0.48507748  0.02370248  0.39848885    -0.14820
H293        H  0.50761087  0.97104350  0.40830791     0.11320
H294        H  0.40640219  0.97054395  0.36167611     0.11320
H295        H  0.40634529  0.03798084  0.36138190     0.11320
H296        H  0.50756519  0.03802104  0.40799187     0.11320
C297        C  0.48962055  0.85031513  0.48551990    -0.14820
C298        C  0.50272649  0.82264330  0.47005062     0.07330
C299        C  0.02139940  0.79455373  0.48706656    -0.14820
C300        C  0.02741102  0.79458889  0.01930641    -0.14820
C301        C  0.01443938  0.82246687  0.03495155     0.07330
C302        C  0.49521337  0.85011369  0.01763431    -0.14820
H303        H  0.47487069  0.87200592  0.47268250     0.11320
H304        H  0.03185031  0.77309261  0.47544110     0.11320
H305        H  0.04250100  0.77306197  0.03197094     0.11320
H306        H  0.48463385  0.87179709  0.02889998     0.11320
C307        C  0.03413058  0.88776765  0.28021040    -0.14820
C308        C  0.50152293  0.88715090  0.28222023     0.07330
C309        C  0.47721453  0.88806294  0.25479397    -0.14820
C310        C  0.48532154  0.88756145  0.22601868    -0.14820
C311        C  0.01792627  0.88697212  0.22400755     0.07330
C312        C  0.04223817  0.88809547  0.25142433    -0.14820
H313        H  0.05338165  0.88696875  0.30088832     0.11320
H314        H  0.45184344  0.88721334  0.25553971     0.11320
H315        H  0.46606775  0.88660760  0.20534711     0.11320
H316        H  0.06760660  0.88727449  0.25066505     0.11320
C317        C  0.28365150  0.52324454  0.10687712    -0.14820
C318        C  0.31161946  0.54281089  0.12128936     0.07330
C319        C  0.34042401  0.52310575  0.13281095    -0.14820
C320        C  0.34033641  0.48445621  0.13266518    -0.14820
C321        C  0.31144425  0.46498234  0.12099450     0.07330
C322        C  0.28356516  0.48479991  0.10672914    -0.14820
H323        H  0.26118655  0.53760498  0.09734956     0.11320
H324        H  0.36239543  0.53740802  0.14398192     0.11320
H325        H  0.36224271  0.46995838  0.14373289     0.11320
H326        H  0.26103571  0.47062617  0.09709759     0.11320
C327        C  0.18528239  0.75053529  0.10800715    -0.14820
C328        C  0.21333084  0.75572751  0.13133767     0.07330
C329        C  0.21424275  0.78497809  0.15225097    -0.14820
C330        C  0.18657485  0.80677285  0.15121386    -0.14820
C331        C  0.15781098  0.80005524  0.12886418     0.07330
C332        C  0.15804796  0.77260500  0.10657452    -0.14820
H333        H  0.18416423  0.72880696  0.09109683     0.11320
H334        H  0.23575318  0.78980709  0.17026437     0.11320
H335        H  0.18717509  0.82745010  0.16887825     0.11320
H336        H  0.13648765  0.76663075  0.08892626     0.11320
C337        C  0.40759038  0.73588142  0.10631392    -0.14820
C338        C  0.40751281  0.70786868  0.12813987     0.07330
C339        C  0.43650121  0.70041687  0.14997897    -0.14820
C340        C  0.46424274  0.72207878  0.15105856    -0.14820
C341        C  0.46318125  0.75191522  0.13071478     0.07330
C342        C  0.43490195  0.75780697  0.10780434    -0.14820
H343        H  0.38586507  0.74242585  0.08905585     0.11320
H344        H  0.43724352  0.67925844  0.16726516     0.11320
H345        H  0.48593116  0.71669673  0.16871727     0.11320
H346        H  0.43365583  0.78000260  0.09130641     0.11320
C347        C  0.37204842  0.71926621  0.25552344    -0.14820
C348        C  0.36486558  0.73742058  0.22682790     0.07330
C349        C  0.37790007  0.77248325  0.22435668    -0.14820
C350        C  0.39778359  0.78903433  0.25004940    -0.14820
C351        C  0.40495324  0.77087792  0.27874419     0.07330
C352        C  0.39193511  0.73580876  0.28120741    -0.14820
H353        H  0.36246968  0.69206926  0.25814549     0.11320
H354        H  0.37323445  0.78685704  0.20248514     0.11320
H355        H  0.40735981  0.81623688  0.24744333     0.11320
H356        H  0.39659299  0.72143040  0.30307699     0.11320
C357        C  0.17838362  0.52362140  0.37240451    -0.14820
C358        C  0.20730552  0.54308075  0.38397751     0.07330
C359        C  0.23521170  0.52325151  0.39815049    -0.14820
C360        C  0.23511250  0.48480705  0.39799085    -0.14820
C361        C  0.20710488  0.46525729  0.38365722     0.07330
C362        C  0.17828344  0.48497499  0.37224546    -0.14820
H363        H  0.15645490  0.53812803  0.36141188     0.11320
H364        H  0.25776562  0.53741498  0.40770752     0.11320
H365        H  0.25759269  0.47043616  0.40743708     0.11320
H366        H  0.15627995  0.47068671  0.36114158     0.11320
C367        C  0.05546443  0.72348831  0.35427647    -0.14820
C368        C  0.05653528  0.75322422  0.37475596     0.07330
C369        C  0.08478393  0.75892083  0.39775084    -0.14820
C370        C  0.11202713  0.73684397  0.39923267    -0.14820
C371        C  0.11204501  0.70884893  0.37734584     0.07330
C372        C  0.08310865  0.70166211  0.35537644    -0.14820
H373        H  0.03380716  0.71823500  0.33654500     0.11320
H374        H  0.08605325  0.78102440  0.41435275     0.11320
H375        H  0.13373611  0.74320328  0.41657366     0.11320
H376        H  0.08232833  0.68054353  0.33803154     0.11320
C377        C  0.33467918  0.74966102  0.39769464    -0.14820
C378        C  0.30642127  0.75556050  0.37475490     0.07330
C379        C  0.30540752  0.78538750  0.35440708    -0.14820
C380        C  0.33313908  0.80707298  0.35554886    -0.14820
C381        C  0.36209373  0.79964805  0.37743813     0.06740
C382        C  0.36199889  0.77159856  0.39922849    -0.14820
H383        H  0.33589833  0.72747704  0.41419743     0.11320
H384        H  0.28374397  0.79078523  0.33672203     0.11320
H385        H  0.33241169  0.82824814  0.33827874     0.11320
H386        H  0.38370689  0.76507049  0.41651365     0.11320
C387        C  0.14048485  0.77209196  0.28149357    -0.14820
C388        C  0.15471233  0.73771621  0.27889835     0.07330
C389        C  0.14850630  0.71991093  0.25003849    -0.14820
C390        C  0.12843173  0.73613627  0.22430197    -0.14820
C391        C  0.11424492  0.77053690  0.22688133     0.07330
C392        C  0.12040775  0.78832266  0.25575085    -0.14820
H393        H  0.14433887  0.78611859  0.30349815     0.11320
H394        H  0.15902074  0.69322899  0.24733171     0.11320
H395        H  0.12459144  0.72210535  0.20230014     0.11320
H396        H  0.10990163  0.81501250  0.25844655     0.11320
C397        C  0.25522790  0.71835847  0.48672456    -0.14820
C398        C  0.25415415  0.68499871  0.47040718     0.07330
C399        C  0.25901284  0.65173382  0.48697682    -0.14820
C400        C  0.26452050  0.65171797  0.01904998    -0.14820
C401        C  0.26577195  0.68498624  0.03541477     0.07330
C402        C  0.26127622  0.71836791  0.01897660    -0.14820
H403        H  0.25161080  0.74443241  0.47459563     0.11320
H404        H  0.25820720  0.62554566  0.47513297     0.11320
H405        H  0.26814090  0.62557125  0.03108318     0.11320
H406        H  0.26206418  0.74441580  0.03101985     0.11320
C407        C  0.28392278  0.62010126  0.27991720    -0.14820
C408        C  0.25128428  0.62091797  0.28180339     0.07330
C409        C  0.22704022  0.61998082  0.25434628    -0.14820
C410        C  0.23526187  0.62037131  0.22562959    -0.14820
C411        C  0.26790803  0.62088751  0.22374556     0.07330
C412        C  0.29214153  0.61967918  0.25120204    -0.14820
H413        H  0.30311800  0.62088157  0.30064066     0.11320
H414        H  0.20165345  0.62095764  0.25502420     0.11320
H415        H  0.21607207  0.62136682  0.20491013     0.11320
H416        H  0.31753621  0.62041552  0.25053459     0.11320
Fe417      Fe  0.25797778  0.64836736  0.87859696     1.65780
Fe418      Fe  0.18180055  0.64444272  0.83651448     1.73250
Fe419      Fe  0.20962456  0.72202261  0.87588100     1.54410
O420        O  0.23601219  0.71318603  0.92118962    -0.83150
O421        O  0.17737048  0.68416436  0.80387949    -0.81450
O422        O  0.25372688  0.65493542  0.92320015    -0.85650
O423        O  0.28441917  0.69714483  0.88182672    -0.80510
O424        O  0.16907562  0.70705916  0.89042251    -0.82280
O425        O  0.21389050  0.61801212  0.81420798    -0.85030
C426        C  0.27865732  0.73013254  0.87255624     0.95740
C427        C  0.24761175  0.68440876  0.93631470     1.03180
O428        O  0.21632210  0.67180687  0.86373475    -1.14010
O429        O  0.18461517  0.60189744  0.86764111    -0.76440
O430        O  0.23818878  0.59589339  0.87849568    -0.79930
O431        O  0.25002364  0.74180329  0.86255525    -0.80620
C432        C  0.21002074  0.58273990  0.87703939     0.94640
O433        O  0.26267335  0.64191159  0.83380148    -0.78580
O434        O  0.14440866  0.66968082  0.85296093    -0.83770
C435        C  0.17280462  0.71834964  0.80653427     0.97260
C436        C  0.14349497  0.69325796  0.87397513     1.03180
O437        O  0.18152987  0.73550691  0.83214674    -0.79410
C438        C  0.24232419  0.62689172  0.81174457     1.01480
Fe439      Fe  0.26141553  0.64834584  0.62699323     1.65780
Fe440      Fe  0.33758551  0.64402813  0.66910125     1.73250
Fe441      Fe  0.30993560  0.72180003  0.62993922     1.54410
O442        O  0.28344280  0.71320290  0.58462962    -0.83150
O443        O  0.34232855  0.68376566  0.70181077    -0.81450
O444        O  0.26589483  0.65488093  0.58245256    -0.85650
O445        O  0.23511035  0.69727803  0.62382129    -0.80510
O446        O  0.35045538  0.70672807  0.61533656    -0.82280
O447        O  0.30537936  0.61788786  0.69142285    -0.85030
C448        C  0.24098238  0.73016360  0.63335384     0.95740
C449        C  0.27203252  0.68439539  0.56944482     1.03180
O450        O  0.30313885  0.67158030  0.64196207    -1.14010
O451        O  0.33455869  0.60143514  0.63793923    -0.76440
O452        O  0.28096837  0.59575767  0.62701933    -0.79930
O453        O  0.26965098  0.74164682  0.64344336    -0.80620
C454        C  0.30907808  0.58244671  0.62844615     0.94640
O455        O  0.25662193  0.64187789  0.67175482    -0.78580
O456        O  0.37501866  0.66897237  0.65256190    -0.83770
C457        C  0.34684418  0.71796573  0.69919906     0.97260
C458        C  0.37599078  0.69260244  0.63161994     1.03180
O459        O  0.33806353  0.73513802  0.67362701    -0.79410
C460        C  0.27692746  0.62682536  0.69382875     1.01480
Fe461      Fe  0.50779900  0.86020826  0.87918574     1.65780
Fe462      Fe  0.43182611  0.86413633  0.83672063     1.73250
Fe463      Fe  0.45981573  0.78631542  0.87562698     1.54410
O464        O  0.50020066  0.76716128  0.86199169    -0.83150
O465        O  0.39450907  0.83884700  0.85320140    -0.81450
O466        O  0.03436901  0.81139705  0.88263896    -0.85650
O467        O  0.50261899  0.85359119  0.92359745    -0.80510
O468        O  0.43173132  0.77307284  0.83192986    -0.82280
O469        O  0.43454367  0.90665607  0.86793565    -0.85030
C470        C  0.49699205  0.82363754  0.93626744     0.95740
C471        C  0.02876431  0.77864369  0.87265201     1.03180
O472        O  0.46629155  0.83670813  0.86387514    -1.14010
O473        O  0.46410865  0.89046768  0.81459285    -0.76440
O474        O  0.51292951  0.86669315  0.83445281    -0.79930
O475        O  0.48642540  0.79466371  0.92093942    -0.80620
C476        C  0.49258284  0.88150851  0.81224152     0.94640
O477        O  0.48807763  0.91268820  0.87891058    -0.78580
O478        O  0.42730966  0.82454839  0.80389097    -0.83770
C479        C  0.39359977  0.81503770  0.87403916     0.97260
C480        C  0.42290855  0.79031564  0.80640563     1.03180
O481        O  0.41916545  0.80086388  0.89026050    -0.79410
C482        C  0.45991116  0.92583142  0.87741101     1.01480
Fe483      Fe  0.01102801  0.85944641  0.62703668     1.65780
Fe484      Fe  0.08731001  0.86388735  0.66920929     1.73250
Fe485      Fe  0.06010939  0.78623709  0.62965097     1.54420
O486        O  0.01956460  0.76578520  0.64239035    -0.83150
O487        O  0.12505907  0.83893990  0.65310456    -0.81450
O488        O  0.48486009  0.81060138  0.62419381    -0.85650
O489        O  0.01453730  0.85260131  0.58216824    -0.80510
O490        O  0.08777103  0.77279994  0.67356147    -0.82280
O491        O  0.08436515  0.90637767  0.63803101    -0.85030
C492        C  0.02148306  0.82344693  0.56909352     0.95740
C493        C  0.99085096  0.77747165  0.63292015     1.03180
O494        O  0.05293188  0.83633287  0.64182204    -1.14010
O495        O  0.05514445  0.89026019  0.69142444    -0.76440
O496        O  0.00652551  0.86603999  0.67193843    -0.79930
O497        O  0.03431264  0.79520823  0.58425719    -0.80620
C498        C  0.02681567  0.88114492  0.69398317     0.94640
O499        O  0.03070911  0.91197370  0.62675227    -0.78580
O500        O  0.09175791  0.82414372  0.70184207    -0.83770
C501        C  0.12624013  0.81544122  0.63211968     0.97260
C502        C  0.09631689  0.78994807  0.69919981     1.03180
O503        O  0.10079764  0.80156259  0.61553049    -0.79410
C504        C  0.05886015  0.92528958  0.62832608     1.01480
Fe505      Fe  0.25727791  0.35972644  0.87770628     1.65780
Fe506      Fe  0.18096112  0.36404241  0.83585119     1.73250
Fe507      Fe  0.20859919  0.28638487  0.87520222     1.54410
O508        O  0.24886690  0.26624185  0.86180424    -0.83150
O509        O  0.14353534  0.33916706  0.85243477    -0.81450
O510        O  0.28351057  0.31082474  0.88069227    -0.85650
O511        O  0.25339792  0.35316717  0.92242584    -0.80510
O512        O  0.18047366  0.27291162  0.83154297    -0.82280
O513        O  0.18408291  0.40669085  0.86696402    -0.85030
C514        C  0.24712875  0.32379569  0.93556333     0.95740
C515        C  0.27756404  0.27781729  0.87154751     1.03180
O516        O  0.21546674  0.33653233  0.86301000    -1.14010
O517        O  0.21299139  0.39018360  0.81335510    -0.76440
O518        O  0.26174836  0.36615838  0.83284339    -0.79930
O519        O  0.23508086  0.29518663  0.92044664    -0.80620
C520        C  0.24137770  0.38119322  0.81082348     0.94640
O521        O  0.23769962  0.41229362  0.87783572    -0.78580
O522        O  0.17623604  0.32420845  0.80324233    -0.83770
C523        C  0.14256201  0.31563142  0.87343698     0.97260
C524        C  0.17176819  0.29001130  0.80592721     1.03180
O525        O  0.16810745  0.30162287  0.88978942    -0.79410
C526        C  0.20959995  0.42563056  0.87645254     1.01480
Fe527      Fe  0.26080509  0.35963307  0.62604358     1.65780
Fe528      Fe  0.33677037  0.36362065  0.66848517     1.73250
Fe529      Fe  0.30908659  0.28593841  0.62921706     1.54410
O530        O  0.26864354  0.26637094  0.64255552    -0.83150
O531        O  0.37424173  0.33839459  0.65215017    -0.81450
O532        O  0.23433941  0.31079909  0.62256264    -0.85650
O533        O  0.26571215  0.35313578  0.58162909    -0.80510
O534        O  0.33710938  0.27258128  0.67298217    -0.82280
O535        O  0.33409000  0.40613973  0.63734363    -0.85030
C536        C  0.27172083  0.32351770  0.56866291     0.95740
C537        C  0.24003757  0.27793062  0.63219371     1.03180
O538        O  0.30238314  0.33620168  0.64120559    -1.14010
O539        O  0.30443751  0.38999582  0.69055279    -0.76440
O540        O  0.25571492  0.36603186  0.67073398    -0.79930
O541        O  0.28273925  0.29458204  0.58385360    -0.80620
C542        C  0.27596549  0.38105184  0.69288010     0.94640
O543        O  0.28053425  0.41215240  0.62635507    -0.78580
O544        O  0.34112727  0.32395841  0.70117862    -0.83770
C545        C  0.37523389  0.31479068  0.63116804     0.97260
C546        C  0.34576150  0.28978027  0.69857456     1.03180
O547        O  0.34970860  0.30081039  0.61475230    -0.79410
C548        C  0.30870895  0.42531374  0.62789653     1.01480
Fe549      Fe  0.50754641  0.14871567  0.87803754     1.65780
Fe550      Fe  0.43129365  0.14427497  0.83587705     1.73250
Fe551      Fe  0.45849708  0.22191673  0.87544512     1.54420
O552        O  0.48439913  0.21297059  0.92081963    -0.83150
O553        O  0.42684296  0.18403499  0.80326371    -0.81450
O554        O  0.50393359  0.15548750  0.92285931    -0.85650
O555        O  0.03371242  0.19758244  0.88093393    -0.80510
O556        O  0.41782947  0.20654424  0.88960132    -0.82280
O557        O  0.46347242  0.11792985  0.81366190    -0.85030
C558        C  0.02772231  0.23069739  0.87215573     0.95740
C559        C  0.49711351  0.18466907  0.93596763     1.03180
O560        O  0.46566060  0.17183088  0.86325251    -1.14010
O561        O  0.43423546  0.10179418  0.86705635    -0.76440
O562        O  0.48788472  0.09617644  0.87828475    -0.79930
O563        O  0.49900697  0.24236142  0.86264056    -0.80620
C564        C  0.45973667  0.08288219  0.87676152     0.94640
O565        O  0.51208200  0.14217739  0.83315514    -0.78580
O566        O  0.39356269  0.16919210  0.85200301    -0.83770
C567        C  0.42224295  0.21822020  0.80592133     0.97260
C568        C  0.39238432  0.19266142  0.87300733     1.03180
O569        O  0.43077151  0.23535616  0.83156548    -0.79410
C570        C  0.49179704  0.12707404  0.81110796     1.01480
Fe571      Fe  0.01090785  0.14808791  0.62597352     1.65780
Fe572      Fe  0.08686462  0.14412153  0.66841132     1.73250
Fe573      Fe  0.05895437  0.22190127  0.62942317     1.54420
O574        O  0.03228296  0.21352732  0.58414382    -0.83150
O575        O  0.09134153  0.18375245  0.70119292    -0.81450
O576        O  0.01608898  0.15461368  0.58157550    -0.85650
O577        O  0.48440107  0.19694283  0.62247514    -0.80510
O578        O  0.09954635  0.20723434  0.61474512    -0.82280
O579        O  0.05456512  0.11784457  0.69055341    -0.85030
C580        C  0.99004689  0.22969532  0.63244921     0.95740
C581        C  0.02171009  0.18453094  0.56884850     1.03180
O582        O  0.05243063  0.17154573  0.64123568    -1.14010
O583        O  0.08412684  0.10155204  0.63723705    -0.76440
O584        O  0.03058662  0.09557342  0.62630066    -0.79930
O585        O  0.01862260  0.24114459  0.64310176    -0.80620
C586        C  0.05874105  0.08239229  0.62779555     0.94640
O587        O  0.00577442  0.14169421  0.67070050    -0.78580
O588        O  0.12419643  0.16937246  0.65190164    -0.83770
C589        C  0.09582096  0.21795868  0.69863171     0.97260
C590        C  0.12511060  0.19309765  0.63099758     1.03180
O591        O  0.08710948  0.23516270  0.67307982    -0.79410
C592        C  0.02609915  0.12684222  0.69290363     1.01480
C593        C  0.49329306  0.21491039  0.98588147    -0.14820
C594        C  0.50417773  0.18558228  0.97012048     0.07330
C595        C  0.02134779  0.15647041  0.98733814    -0.14820
C596        C  0.02692206  0.15628856  0.51944044    -0.14820
C597        C  0.01593118  0.18544177  0.53504013     0.07330
C598        C  0.49936431  0.21496489  0.51812318    -0.14820
H599        H  0.47984959  0.23764220  0.97331825     0.11320
H600        H  0.03028478  0.13359003  0.97601311     0.11320
H601        H  0.04005662  0.13344678  0.53216494     0.11320
H602        H  0.49055970  0.23761968  0.52982160     0.11320
C603        C  0.47638921  0.12027691  0.75366558    -0.14820
C604        C  0.50069131  0.12128653  0.78108987     0.07330
C605        C  0.03330094  0.12063482  0.77910132    -0.14820
C606        C  0.04142710  0.12017291  0.75033705    -0.14820
C607        C  0.01713327  0.12118653  0.72290563     0.07330
C608        C  0.48451735  0.12064277  0.72489199    -0.14820
H609        H  0.45101903  0.12115670  0.75441380     0.11320
H610        H  0.05254467  0.12150618  0.79978391     0.11320
H611        H  0.06680357  0.12096722  0.74960683     0.11320
H612        H  0.46527818  0.12152408  0.70420739     0.11320
C613        C  0.18405270  0.25820253  0.60701651    -0.14820
C614        C  0.21227273  0.25250690  0.63005033     0.07330
C615        C  0.21325608  0.22288206  0.65059225    -0.14820
C616        C  0.18553942  0.20120624  0.64953388    -0.14820
C617        C  0.15661713  0.20843861  0.62754719     0.07330
C618        C  0.15673726  0.23627409  0.60557751    -0.14820
H619        H  0.18285478  0.28022555  0.59037301     0.11320
H620        H  0.23488553  0.21764185  0.66836127     0.11320
H621        H  0.18624696  0.18020560  0.66694240     0.11320
H622        H  0.13504985  0.24264573  0.58821336     0.11320
C623        C  0.40688970  0.27165663  0.60571326    -0.14820
C624        C  0.40674227  0.29938817  0.62779001     0.07330
C625        C  0.43559688  0.30643123  0.64991491    -0.14820
C626        C  0.46327141  0.28466641  0.65099503    -0.14820
C627        C  0.46230440  0.25514372  0.63033209     0.07330
C628        C  0.43416125  0.24963804  0.60717012    -0.14820
H629        H  0.38524983  0.26543627  0.58824028     0.11320
H630        H  0.43627447  0.32734965  0.66740304     0.11320
H631        H  0.48485247  0.28976486  0.66885856     0.11320
H632        H  0.43298965  0.22770644  0.59042976     0.11320
C633        C  0.39017731  0.27207281  0.78081135    -0.14820
C634        C  0.40430113  0.23762902  0.77824754     0.07330
C635        C  0.39808391  0.21980629  0.74939522    -0.14820
C636        C  0.37801408  0.23603555  0.72365565    -0.14820
C637        C  0.36385093  0.27045409  0.72622955     0.07330
C638        C  0.37011233  0.28830524  0.75506960    -0.14820
H639        H  0.39406714  0.28613663  0.80280146     0.11320
H640        H  0.40854073  0.19308605  0.74670804     0.11320
H641        H  0.37411543  0.22196779  0.70166657     0.11320
H642        H  0.35965107  0.31502322  0.75775494     0.11320
C643        C  0.11096664  0.27235513  0.89876000    -0.14820
C644        C  0.11104286  0.30033737  0.87690779     0.07330
C645        C  0.08206020  0.30773824  0.85504320    -0.14820
C646        C  0.05432686  0.28606422  0.85397210    -0.14820
C647        C  0.05538777  0.25626271  0.87435029     0.07330
C648        C  0.08366150  0.25041663  0.89727962    -0.14820
H649        H  0.13268871  0.26584580  0.91603423     0.11320
H650        H  0.08131600  0.32887032  0.83773514     0.11320
H651        H  0.03264485  0.29141082  0.83629577     0.11320
H652        H  0.08490847  0.22824728  0.91380121     0.11320
C653        C  0.33330147  0.25767356  0.89688400    -0.14820
C654        C  0.30521185  0.25224167  0.87365087     0.07330
C655        C  0.30428713  0.22279044  0.85292986    -0.14820
C656        C  0.33199651  0.20104240  0.85402918    -0.14820
C657        C  0.36080279  0.20801185  0.87625902     0.07330
C658        C  0.36057041  0.23565268  0.89838781    -0.14820
H659        H  0.33442631  0.27956354  0.91365540     0.11320
H660        H  0.28274074  0.21777593  0.83500443     0.11320
H661        H  0.33138846  0.18019707  0.83649572     0.11320
H662        H  0.38215704  0.24182245  0.91594275     0.11320
C663        C  0.11966891  0.21980230  0.75519775    -0.14820
C664        C  0.11375321  0.23738780  0.72627687     0.07330
C665        C  0.12805656  0.27168903  0.72362932    -0.14820
C666        C  0.14796460  0.28806105  0.74938137    -0.14820
C667        C  0.15386511  0.27049824  0.77831065     0.07330
C668        C  0.13957196  0.23618726  0.78096186    -0.14820
H669        H  0.10905947  0.19319273  0.75792166     0.11320
H670        H  0.12440952  0.28554141  0.70157181     0.11320
H671        H  0.15857555  0.31466454  0.74663854     0.11320
H672        H  0.14322176  0.22234668  0.80302429     0.11320
C673        C  0.25305022  0.28993251  0.98583243    -0.14820
C674        C  0.25400015  0.32309381  0.96968168     0.07330
C675        C  0.26110499  0.35605830  0.98645388    -0.14820
C676        C  0.26666479  0.35601262  0.51853126    -0.14820
C677        C  0.26573068  0.32295570  0.53468063     0.07330
C678        C  0.25915224  0.28982728  0.51808221    -0.14820
H679        H  0.24768220  0.26407596  0.97357458     0.11320
H680        H  0.26198303  0.38209301  0.97477947     0.11320
H681        H  0.27197813  0.38191463  0.53075109     0.11320
H682        H  0.25823827  0.26396852  0.53000016     0.11320
C683        C  0.28288773  0.38820036  0.77894746    -0.14820
C684        C  0.25026430  0.38705126  0.78084395     0.07330
C685        C  0.22600582  0.38755827  0.75338868    -0.14820
C686        C  0.23422417  0.38711161  0.72466727    -0.14820
C687        C  0.26687415  0.38696812  0.72277731     0.07330
C688        C  0.29109560  0.38856877  0.75022959    -0.14820
H689        H  0.30208980  0.38774779  0.79967366     0.11320
H690        H  0.20063367  0.38629880  0.75408615     0.11320
H691        H  0.21504071  0.38579474  0.70395750     0.11320
H692        H  0.31649694  0.38812404  0.74956882     0.11320
C693        C  0.03350217  0.98452266  0.60673067    -0.14820
C694        C  0.06144540  0.96489474  0.62111347     0.07330
C695        C  0.09029905  0.98453275  0.63258241    -0.14820
C696        C  0.09028565  0.02318016  0.63244581    -0.14820
C697        C  0.06141913  0.04272192  0.62083173     0.07330
C698        C  0.03349220  0.02296788  0.60658658    -0.14820
H699        H  0.01100159  0.97022237  0.59724172     0.11320
H700        H  0.11226191  0.97018528  0.64372041     0.11320
H701        H  0.11222562  0.03762558  0.64348844     0.11320
H702        H  0.01097703  0.03719731  0.59699021     0.11320
C703        C  0.48509853  0.98525862  0.89867230    -0.14820
C704        C  0.45719450  0.96548627  0.88439547     0.07330
C705        C  0.42832630  0.98500573  0.87273807    -0.14820
C706        C  0.42830138  0.02365054  0.87256382    -0.14820
C707        C  0.45714531  0.04330213  0.88403692     0.07330
C708        C  0.48507746  0.02370250  0.89848893    -0.14820
H709        H  0.50761086  0.97104351  0.90830792     0.11320
H710        H  0.40640221  0.97054398  0.86167607     0.11320
H711        H  0.40634528  0.03798087  0.86138196     0.11320
H712        H  0.50756517  0.03802105  0.90799198     0.11320
C713        C  0.48962401  0.85031800  0.98552008    -0.14820
C714        C  0.50272651  0.82264351  0.97005060     0.07330
C715        C  0.02139602  0.79455140  0.98706641    -0.14820
C716        C  0.02741440  0.79459121  0.51930656    -0.14820
C717        C  0.01443948  0.82246667  0.53495153     0.07330
C718        C  0.49521002  0.85011080  0.51763415    -0.14820
H719        H  0.47487685  0.87201089  0.97268285     0.11320
H720        H  0.03184435  0.77308821  0.97544084     0.11320
H721        H  0.04250702  0.77306640  0.53197125     0.11320
H722        H  0.48462783  0.87179204  0.52889975     0.11320
C723        C  0.03413060  0.88776772  0.78021032    -0.14820
C724        C  0.50152295  0.88715097  0.78222014     0.07330
C725        C  0.47721455  0.88806300  0.75479388    -0.14820
C726        C  0.48532156  0.88756151  0.72601859    -0.14820
C727        C  0.01792631  0.88697219  0.72400748     0.07330
C728        C  0.04223820  0.88809554  0.75142426    -0.14820
H729        H  0.05338167  0.88696882  0.80088825     0.11320
H730        H  0.45184346  0.88721341  0.75553961     0.11320
H731        H  0.46606778  0.88660767  0.70534702     0.11320
H732        H  0.06760663  0.88727456  0.75066498     0.11320
C733        C  0.28365157  0.52324453  0.60687707    -0.14820
C734        C  0.31161953  0.54281087  0.62128935     0.07330
C735        C  0.34042406  0.52310571  0.63281100    -0.14820
C736        C  0.34033644  0.48445617  0.63266523    -0.14820
C737        C  0.31144428  0.46498233  0.62099451     0.07330
C738        C  0.28356521  0.48479991  0.60672909    -0.14820
H739        H  0.26118663  0.53760498  0.59734947     0.11320
H740        H  0.36239547  0.53740798  0.64398200     0.11320
H741        H  0.36224272  0.46995834  0.64373297     0.11320
H742        H  0.26103577  0.47062617  0.59709751     0.11320
C743        C  0.18528253  0.75053537  0.60800716    -0.14820
C744        C  0.21333096  0.75572751  0.63133772     0.07330
C745        C  0.21424286  0.78497803  0.65225108    -0.14820
C746        C  0.18657498  0.80677280  0.65121397    -0.14820
C747        C  0.15781113  0.80005527  0.62886426     0.07330
C748        C  0.15804812  0.77260510  0.60657454    -0.14820
H749        H  0.18416438  0.72880710  0.59109680     0.11320
H750        H  0.23575328  0.78980697  0.67026450     0.11320
H751        H  0.18717521  0.82745000  0.66887841     0.11320
H752        H  0.13648782  0.76663092  0.58892624     0.11320
C753        C  0.40759043  0.73588139  0.60631392    -0.14820
C754        C  0.40751287  0.70786865  0.62813985     0.07330
C755        C  0.43650128  0.70041681  0.64997894    -0.14820
C756        C  0.46424282  0.72207872  0.65105851    -0.14820
C757        C  0.46318132  0.75191517  0.63071474     0.07330
C758        C  0.43490200  0.75780694  0.60780432    -0.14820
H759        H  0.38586511  0.74242584  0.58905586     0.11320
H760        H  0.43724360  0.67925838  0.66726512     0.11320
H761        H  0.48593124  0.71669666  0.66871720     0.11320
H762        H  0.43365587  0.78000257  0.59130640     0.11320
C763        C  0.37204846  0.71926621  0.75552342    -0.14820
C764        C  0.36486563  0.73742056  0.72682788     0.07330
C765        C  0.37790011  0.77248323  0.72435664    -0.14820
C766        C  0.39778363  0.78903432  0.75004936    -0.14820
C767        C  0.40495329  0.77087792  0.77874415     0.07330
C768        C  0.39193515  0.73580876  0.78120739    -0.14820
H769        H  0.36246972  0.69206926  0.75814548     0.11320
H770        H  0.37323449  0.78685701  0.70248510     0.11320
H771        H  0.40735985  0.81623687  0.74744328     0.11320
H772        H  0.39659303  0.72143042  0.80307697     0.11320
C773        C  0.17838363  0.52362144  0.87240453    -0.14820
C774        C  0.20730554  0.54308077  0.88397753     0.07330
C775        C  0.23521171  0.52325152  0.89815052    -0.14820
C776        C  0.23511249  0.48480707  0.89799089    -0.14820
C777        C  0.20710487  0.46525731  0.88365725     0.07330
C778        C  0.17828344  0.48497503  0.87224549    -0.14820
H779        H  0.15645491  0.53812807  0.86141189     0.11320
H780        H  0.25776562  0.53741499  0.90770756     0.11320
H781        H  0.25759267  0.47043617  0.90743713     0.11320
H782        H  0.15627995  0.47068675  0.86114159     0.11320
C783        C  0.05546453  0.72348841  0.85427639    -0.14820
C784        C  0.05653538  0.75322433  0.87475588     0.07330
C785        C  0.08478403  0.75892096  0.89775075    -0.14820
C786        C  0.11202722  0.73684408  0.89923261    -0.14820
C787        C  0.11204511  0.70884902  0.87734579     0.07330
C788        C  0.08310875  0.70166219  0.85537639    -0.14820
H789        H  0.03380726  0.71823509  0.83654493     0.11320
H790        H  0.08605334  0.78102454  0.91435265     0.11320
H791        H  0.13373619  0.74320340  0.91657360     0.11320
H792        H  0.08232843  0.68054359  0.83803150     0.11320
C793        C  0.33467935  0.74966087  0.89769458    -0.14820
C794        C  0.30642139  0.75556045  0.87475491     0.07330
C795        C  0.30540761  0.78538752  0.85440716    -0.14820
C796        C  0.33313917  0.80707300  0.85554893    -0.14820
C797        C  0.36209385  0.79964799  0.87743813     0.06740
C798        C  0.36199906  0.77159841  0.89922842    -0.14820
H799        H  0.33589852  0.72747683  0.91419731     0.11320
H800        H  0.28374403  0.79078532  0.83672217     0.11320
H801        H  0.33241174  0.82824824  0.83827888     0.11320
H802        H  0.38370708  0.76507027  0.91651352     0.11320
C803        C  0.14048489  0.77209197  0.78149359    -0.14820
C804        C  0.15471238  0.73771623  0.77889836     0.07330
C805        C  0.14850634  0.71991095  0.75003850    -0.14820
C806        C  0.12843175  0.73613628  0.72430198    -0.14820
C807        C  0.11424493  0.77053690  0.72688134     0.07330
C808        C  0.12040776  0.78832266  0.75575087    -0.14820
H809        H  0.14433891  0.78611860  0.80349816     0.11320
H810        H  0.15902080  0.69322901  0.74733171     0.11320
H811        H  0.12459146  0.72210535  0.70230015     0.11320
H812        H  0.10990164  0.81501249  0.75844657     0.11320
C813        C  0.25522795  0.71835849  0.98672456    -0.14820
C814        C  0.25415420  0.68499872  0.97040719     0.07330
C815        C  0.25901287  0.65173384  0.98697683    -0.14820
C816        C  0.26452050  0.65171795  0.51904997    -0.14820
C817        C  0.26577196  0.68498621  0.53541476     0.07330
C818        C  0.26127619  0.71836789  0.51897660    -0.14820
H819        H  0.25161088  0.74443243  0.97459563     0.11320
H820        H  0.25820722  0.62554567  0.97513299     0.11320
H821        H  0.26814093  0.62557122  0.53108317     0.11320
H822        H  0.26206414  0.74441577  0.53101986     0.11320
C823        C  0.28392285  0.62010124  0.77991721    -0.14820
C824        C  0.25128435  0.62091795  0.78180341     0.07330
C825        C  0.22704029  0.61998081  0.75434629    -0.14820
C826        C  0.23526193  0.62037130  0.72562960    -0.14820
C827        C  0.26790809  0.62088749  0.72374557     0.07330
C828        C  0.29214160  0.61967916  0.75120205    -0.14820
H829        H  0.30311807  0.62088154  0.80064067     0.11320
H830        H  0.20165351  0.62095764  0.75502421     0.11320
H831        H  0.21607213  0.62136681  0.70491014     0.11320
H832        H  0.31753627  0.62041549  0.75053459     0.11320
Fe833      Fe  0.75797771  0.64836738  0.37859694     1.65780
Fe834      Fe  0.68180047  0.64444270  0.33651447     1.73250
Fe835      Fe  0.70962446  0.72202259  0.37588100     1.54410
O836        O  0.73601209  0.71318602  0.42118961    -0.83150
O837        O  0.67737039  0.68416434  0.30387948    -0.81450
O838        O  0.75372681  0.65493542  0.42320014    -0.85650
O839        O  0.78441908  0.69714486  0.38182670    -0.80510
O840        O  0.66907552  0.70705913  0.39042251    -0.82280
O841        O  0.71389042  0.61801212  0.31420796    -0.85030
C842        C  0.77865721  0.73013256  0.37255623     0.95740
C843        C  0.74761167  0.68440876  0.43631469     1.03180
O844        O  0.71632201  0.67180686  0.36373474    -1.14010
O845        O  0.68461512  0.60189742  0.36764110    -0.76440
O846        O  0.73818873  0.59589339  0.37849565    -0.79930
O847        O  0.75002353  0.74180330  0.36255524    -0.80620
C848        C  0.71002069  0.58273989  0.37703937     0.94640
O849        O  0.76267327  0.64191162  0.33380146    -0.78580
O850        O  0.64440857  0.66968076  0.35296093    -0.83770
C851        C  0.67280453  0.71834962  0.30653427     0.97260
C852        C  0.64349487  0.69325790  0.37397514     1.03180
O853        O  0.68152977  0.73550688  0.33214674    -0.79410
C854        C  0.74232412  0.62689174  0.31174455     1.01480
Fe855      Fe  0.76141547  0.64834587  0.12699322     1.65780
Fe856      Fe  0.83758545  0.64402816  0.16910123     1.73250
Fe857      Fe  0.80993552  0.72180008  0.12993923     1.54410
O858        O  0.78344275  0.71320295  0.08462963    -0.83150
O859        O  0.84232851  0.68376567  0.20181077    -0.81450
O860        O  0.76589478  0.65488097  0.08245256    -0.85650
O861        O  0.73511027  0.69727805  0.12382126    -0.80510
O862        O  0.85045532  0.70672816  0.11533658    -0.82280
O863        O  0.80537929  0.61788789  0.19142284    -0.85030
C864        C  0.74098228  0.73016362  0.13335381     0.95740
C865        C  0.77203248  0.68439543  0.06944482     1.03180
O866        O  0.80313879  0.67158034  0.14196207    -1.14010
O867        O  0.83455861  0.60143517  0.13793921    -0.76440
O868        O  0.78096830  0.59575769  0.12701932    -0.79930
O869        O  0.76965088  0.74164685  0.14344335    -0.80620
C870        C  0.80907801  0.58244674  0.12844614     0.94640
O871        O  0.75662186  0.64187792  0.17175480    -0.78580
O872        O  0.87501859  0.66897239  0.15256188    -0.83770
C873        C  0.84684412  0.71796575  0.19919908     0.97260
C874        C  0.87599072  0.69260250  0.13161995     1.03180
O875        O  0.83806344  0.73513806  0.17362704    -0.79410
C876        C  0.77692740  0.62682539  0.19382873     1.01480
Fe877      Fe  0.00779895  0.86020819  0.37918584     1.65780
Fe878      Fe  0.93182607  0.86413630  0.33672068     1.73250
Fe879      Fe  0.95981563  0.78631538  0.37562704     1.54410
O880        O  0.00020057  0.76716120  0.36199179    -0.83150
O881        O  0.89450900  0.83884698  0.35320140    -0.81450
O882        O  0.53436894  0.81139694  0.38263905    -0.85650
O883        O  0.00261896  0.85359111  0.42359757    -0.80510
O884        O  0.93173124  0.77307281  0.33192991    -0.82280
O885        O  0.93454361  0.90665603  0.36793569    -0.85030
C886        C  0.99699199  0.82363745  0.43626751     0.95740
C887        C  0.52876422  0.77864359  0.37265211     1.03180
O888        O  0.96629149  0.83670808  0.36387522    -1.14010
O889        O  0.96410864  0.89046765  0.31459293    -0.76440
O890        O  0.01292948  0.86669308  0.33445290    -0.79930
O891        O  0.98642528  0.79466365  0.42093948    -0.80620
C892        C  0.99258282  0.88150846  0.31224161     0.94640
O893        O  0.98807758  0.91268813  0.37891068    -0.78580
O894        O  0.92730965  0.82454836  0.30389101    -0.83770
C895        C  0.89359967  0.81503770  0.37403917     0.97260
C896        C  0.92290850  0.79031561  0.30640567     1.03180
O897        O  0.91916533  0.80086387  0.39026053    -0.79410
C898        C  0.95991111  0.92583137  0.37741107     1.01480
Fe899      Fe  0.51102798  0.85944644  0.12703675     1.65780
Fe900      Fe  0.58730995  0.86388735  0.16920930     1.73250
Fe901      Fe  0.56010926  0.78623710  0.12965099     1.54420
O902        O  0.51956454  0.76578526  0.14239049    -0.83150
O903        O  0.62505896  0.83893989  0.15310450    -0.81450
O904        O  0.98486005  0.81060143  0.12419378    -0.85650
O905        O  0.51453740  0.85260144  0.08216836    -0.80510
O906        O  0.58777101  0.77279996  0.17356145    -0.82280
O907        O  0.58436507  0.90637769  0.13803102    -0.85030
C908        C  0.52148296  0.82344702  0.06909357     0.95740
C909        C  0.49085090  0.77747168  0.13292020     1.03180
O910        O  0.55293181  0.83633288  0.14182209    -1.14010
O911        O  0.55514439  0.89026016  0.19142448    -0.76440
O912        O  0.50652544  0.86603994  0.17193849    -0.79930
O913        O  0.53431235  0.79520821  0.08425723    -0.80620
C914        C  0.52681561  0.88114487  0.19398324     0.94640
O915        O  0.53070904  0.91197375  0.12675241    -0.78580
O916        O  0.59175787  0.82414372  0.20184207    -0.83770
C917        C  0.62623999  0.81544121  0.13211961     0.97260
C918        C  0.59631688  0.78994807  0.19919979     1.03180
O919        O  0.60079748  0.80156261  0.11553043    -0.79410
C920        C  0.55886007  0.92528960  0.12832614     1.01480
Fe921      Fe  0.75727796  0.35972647  0.37770627     1.65780
Fe922      Fe  0.68096118  0.36404236  0.33585116     1.73250
Fe923      Fe  0.70859933  0.28638482  0.37520218     1.54410
O924        O  0.74886711  0.26624188  0.36180424    -0.83150
O925        O  0.64353542  0.33916700  0.35243476    -0.81450
O926        O  0.78351069  0.31082483  0.38069231    -0.85650
O927        O  0.75339793  0.35316718  0.42242582    -0.80510
O928        O  0.68047385  0.27291153  0.33154291    -0.82280
O929        O  0.68408294  0.40669081  0.36696399    -0.85030
C930        C  0.74712877  0.32379570  0.43556331     0.95740
C931        C  0.77756423  0.27781736  0.37154755     1.03180
O932        O  0.71546682  0.33653230  0.36300998    -1.14010
O933        O  0.71299144  0.39018356  0.31335507    -0.76440
O934        O  0.76174843  0.36615842  0.33284339    -0.79930
O935        O  0.73508094  0.29518661  0.42044661    -0.80620
C936        C  0.74137777  0.38119321  0.31082347     0.94640
O937        O  0.73769964  0.41229363  0.37783569    -0.78580
O938        O  0.67623609  0.32420840  0.30324230    -0.83770
C939        C  0.64256210  0.31563131  0.37343694     0.97260
C940        C  0.67176831  0.29001123  0.30592716     1.03180
O941        O  0.66810754  0.30162269  0.38978933    -0.79410
C942        C  0.70959997  0.42563055  0.37645251     1.01480
Fe943      Fe  0.76080515  0.35963302  0.12604357     1.65780
Fe944      Fe  0.83677043  0.36362069  0.16848513     1.73250
Fe945      Fe  0.80908671  0.28593842  0.12921706     1.54410
O946        O  0.76864367  0.26637090  0.14255554    -0.83150
O947        O  0.87424181  0.33839467  0.15215013    -0.81450
O948        O  0.73433951  0.31079900  0.12256263    -0.85650
O949        O  0.76571221  0.35313574  0.08162908    -0.80510
O950        O  0.83710951  0.27258134  0.17298217    -0.82280
O951        O  0.83409001  0.40613976  0.13734357    -0.85030
C952        C  0.77172091  0.32351766  0.06866291     0.95740
C953        C  0.74003770  0.27793053  0.13219371     1.03180
O954        O  0.80238322  0.33620168  0.14120558    -1.14010
O955        O  0.80443755  0.38999583  0.19055276    -0.76440
O956        O  0.75571499  0.36603179  0.17073397    -0.79930
O957        O  0.78273935  0.29458200  0.08385361    -0.80620
C958        C  0.77596555  0.38105180  0.19288008     0.94640
O959        O  0.78053426  0.41215237  0.12635506    -0.78580
O960        O  0.84112738  0.32395848  0.20117860    -0.83770
C961        C  0.87523398  0.31479076  0.13116801     0.97260
C962        C  0.84576161  0.28978034  0.19857456     1.03180
O963        O  0.84970869  0.30081043  0.11475228    -0.79410
C964        C  0.80870894  0.42531375  0.12789650     1.01480
Fe965      Fe  0.00754640  0.14871552  0.37803735     1.65780
Fe966      Fe  0.93129369  0.14427502  0.33587695     1.73250
Fe967      Fe  0.95849735  0.22191670  0.37544505     1.54420
O968        O  0.98439974  0.21297058  0.42081952    -0.83150
O969        O  0.92684304  0.18403507  0.30326366    -0.81450
O970        O  0.00393327  0.15548712  0.42285901    -0.85650
O971        O  0.53371250  0.19758237  0.38093392    -0.80510
O972        O  0.91782980  0.20654427  0.38960142    -0.82280
O973        O  0.96347243  0.11792990  0.31366174    -0.85030
C974        C  0.52772240  0.23069732  0.37215569     0.95740
C975        C  0.99711363  0.18466879  0.43596746     1.03180
O976        O  0.96566068  0.17183084  0.36325236    -1.14010
O977        O  0.93423545  0.10179419  0.36705622    -0.76440
O978        O  0.98788469  0.09617630  0.37828437    -0.79930
O979        O  0.99900713  0.24236120  0.36264023    -0.80620
C980        C  0.95973663  0.08288213  0.37676129     0.94640
O981        O  0.01208204  0.14217740  0.33315496    -0.78580
O982        O  0.89356286  0.16919225  0.35200305    -0.83770
C983        C  0.92224302  0.21822026  0.30592132     0.97260
C984        C  0.89238459  0.19266154  0.37300743     1.03180
O985        O  0.93077157  0.23535618  0.33156549    -0.79410
C986        C  0.99179705  0.12707408  0.31110778     1.01480
Fe987      Fe  0.51090790  0.14808804  0.12597327     1.65780
Fe988      Fe  0.58686463  0.14412153  0.16841118     1.73250
Fe989      Fe  0.55895449  0.22190136  0.12942310     1.54420
O990        O  0.53228302  0.21352754  0.08414376    -0.83150
O991        O  0.59134158  0.18375242  0.20119281    -0.81450
O992        O  0.51608914  0.15461382  0.08157525    -0.85650
O993        O  0.98440116  0.19694295  0.12247499    -0.80510
O994        O  0.59954648  0.20723440  0.11474505    -0.82280
O995        O  0.55456505  0.11784463  0.19055321    -0.85030
C996        C  0.49004701  0.22969547  0.13244905     0.95740
C997        C  0.52171018  0.18453120  0.06884839     1.03180
O998        O  0.55243070  0.17154580  0.14123552    -1.14010
O999        O  0.58412682  0.10155205  0.13723689    -0.76440
O1000       O  0.53058660  0.09557351  0.12630043    -0.79930
O1001       O  0.51862273  0.24114467  0.14310171    -0.80620
C1002       C  0.55874101  0.08239233  0.12779537     0.94640
O1003       O  0.50577439  0.14169433  0.17070025    -0.78580
O1004       O  0.62419648  0.16937240  0.15190153    -0.83770
C1005       C  0.59582106  0.21795864  0.19863163     0.97260
C1006       C  0.62511070  0.19309761  0.13099749     1.03180
O1007       O  0.58710962  0.23516269  0.17307976    -0.79410
C1008       C  0.52609910  0.12684233  0.19290341     1.01480
C1009       C  0.99330053  0.21491454  0.48588173    -0.14820
C1010       C  0.00417778  0.18558173  0.47012036     0.07330
C1011       C  0.52134467  0.15646809  0.48733798    -0.14820
C1012       C  0.52692966  0.15629385  0.01944090    -0.14820
C1013       C  0.51593130  0.18544228  0.03504015     0.07330
C1014       C  0.99936120  0.21496323  0.01812306    -0.14820
H1015       H  0.97986307  0.23765031  0.47331884     0.11320
H1016       H  0.53027920  0.13358607  0.47601286     0.11320
H1017       H  0.54007006  0.13345583  0.03216579     0.11320
H1018       H  0.99055415  0.23761640  0.02982140     0.11320
C1019       C  0.97638920  0.12027698  0.25366540    -0.14820
C1020       C  0.00069130  0.12128657  0.28108968     0.07330
C1021       C  0.53330093  0.12063496  0.27910112    -0.14820
C1022       C  0.54142706  0.12017307  0.25033684    -0.14820
C1023       C  0.51713322  0.12118670  0.22290543     0.07330
C1024       C  0.98451734  0.12064284  0.22489182    -0.14820
H1025       H  0.95101902  0.12115679  0.25441362     0.11320
H1026       H  0.55254468  0.12150630  0.29978370     0.11320
H1027       H  0.56680353  0.12096736  0.24960660     0.11320
H1028       H  0.96527817  0.12152418  0.20420721     0.11320
C1029       C  0.68405295  0.25820222  0.10701634    -0.14820
C1030       C  0.71227289  0.25250677  0.13005031     0.07330
C1031       C  0.71325616  0.22288209  0.15059238    -0.14820
C1032       C  0.68553949  0.20120628  0.14953398    -0.14820
C1033       C  0.65661727  0.20843849  0.12754714     0.07330
C1034       C  0.65673751  0.23627377  0.10557732    -0.14820
H1035       H  0.68285510  0.28022511  0.09037273     0.11320
H1036       H  0.73488554  0.21764202  0.16836151     0.11320
H1037       H  0.68624696  0.18020579  0.16694261     0.11320
H1038       H  0.63505016  0.24264528  0.08821305     0.11320
C1039       C  0.90688981  0.27165678  0.10571317    -0.14820
C1040       C  0.90674237  0.29938828  0.12778995     0.07330
C1041       C  0.93559697  0.30643131  0.14991487    -0.14820
C1042       C  0.96327150  0.28466649  0.15099497    -0.14820
C1043       C  0.96230450  0.25514384  0.13033200     0.07330
C1044       C  0.93416136  0.24963820  0.10717001    -0.14820
H1045       H  0.88524994  0.26543645  0.08824018     0.11320
H1046       H  0.93627456  0.32734969  0.16740303     0.11320
H1047       H  0.98485256  0.28976491  0.16885851     0.11320
H1048       H  0.93298976  0.22770663  0.09042962     0.11320
C1049       C  0.89017732  0.27207286  0.28081136    -0.14820
C1050       C  0.90430118  0.23762909  0.27824755     0.07330
C1051       C  0.89808401  0.21980639  0.24939522    -0.14820
C1052       C  0.87801419  0.23603564  0.22365565    -0.14820
C1053       C  0.86385102  0.27045416  0.22622955     0.07330
C1054       C  0.87011237  0.28830530  0.25506961    -0.14820
H1055       H  0.89406712  0.28613666  0.30280148     0.11320
H1056       H  0.90854086  0.19308617  0.24670803     0.11320
H1057       H  0.87411558  0.22196790  0.20166657     0.11320
H1058       H  0.85965108  0.31502326  0.25775495     0.11320
C1059       C  0.61096672  0.27235506  0.39875998    -0.14820
C1060       C  0.61104296  0.30033729  0.37690777     0.07330
C1061       C  0.58206029  0.30773816  0.35504318    -0.14820
C1062       C  0.55432696  0.28606414  0.35397207    -0.14820
C1063       C  0.55538786  0.25626263  0.37435026     0.07330
C1064       C  0.58366158  0.25041656  0.39727960    -0.14820
H1065       H  0.63268879  0.26584573  0.41603422     0.11320
H1066       H  0.58131610  0.32887024  0.33773512     0.11320
H1067       H  0.53264495  0.29141075  0.33629573     0.11320
H1068       H  0.58490855  0.22824722  0.41380119     0.11320
C1069       C  0.83330178  0.25767391  0.39688395    -0.14820
C1070       C  0.80521209  0.25224180  0.37365094     0.07330
C1071       C  0.80428735  0.22279041  0.35293009    -0.14820
C1072       C  0.83199674  0.20104241  0.35402942    -0.14820
C1073       C  0.86080309  0.20801204  0.37625913     0.07330
C1074       C  0.86057076  0.23565307  0.39838777    -0.14820
H1075       H  0.83442666  0.27956402  0.41365523     0.11320
H1076       H  0.78274091  0.21777573  0.33500476     0.11320
H1077       H  0.83138865  0.18019692  0.33649608     0.11320
H1078       H  0.88215744  0.24182300  0.41594259     0.11320
C1079       C  0.61966908  0.21980220  0.25519767    -0.14820
C1080       C  0.61375334  0.23738774  0.22627681     0.07330
C1081       C  0.62805664  0.27168900  0.22362928    -0.14820
C1082       C  0.64796468  0.28806102  0.24938133    -0.14820
C1083       C  0.65386523  0.27049817  0.27831060     0.07330
C1084       C  0.63957213  0.23618716  0.28096178    -0.14820
H1085       H  0.60905968  0.19319260  0.25792157     0.11320
H1086       H  0.62440956  0.28554142  0.20157178     0.11320
H1087       H  0.65857559  0.31466453  0.24663851     0.11320
H1088       H  0.64322196  0.22234655  0.30302420     0.11320
C1089       C  0.75305038  0.28993249  0.48583241    -0.14820
C1090       C  0.75400011  0.32309383  0.46968165     0.07330
C1091       C  0.76110471  0.35605836  0.48645384    -0.14820
C1092       C  0.76666506  0.35601255  0.01853129    -0.14820
C1093       C  0.76573075  0.32295566  0.03468063     0.07330
C1094       C  0.75915210  0.28982727  0.01808220    -0.14820
H1095       H  0.74768255  0.26407592  0.47357457     0.11320
H1096       H  0.76198258  0.38209309  0.47477943     0.11320
H1097       H  0.77197857  0.38191454  0.03075113     0.11320
H1098       H  0.75823798  0.26396854  0.03000014     0.11320
C1099       C  0.78288779  0.38820036  0.27894744    -0.14820
C1100       C  0.75026436  0.38705124  0.28084393     0.07330
C1101       C  0.72600587  0.38755823  0.25338867    -0.14820
C1102       C  0.73422422  0.38711156  0.22466725    -0.14820
C1103       C  0.76687421  0.38696809  0.22277729     0.07330
C1104       C  0.79109565  0.38856876  0.25022957    -0.14820
H1105       H  0.80208986  0.38774781  0.29967364     0.11320
H1106       H  0.70063373  0.38629874  0.25408613     0.11320
H1107       H  0.71504077  0.38579468  0.20395749     0.11320
H1108       H  0.81649700  0.38812404  0.24956879     0.11320
C1109       C  0.53350205  0.98452266  0.10673072    -0.14820
C1110       C  0.56144530  0.96489475  0.12111348     0.07330
C1111       C  0.59029898  0.98453276  0.13258231    -0.14820
C1112       C  0.59028559  0.02318018  0.13244564    -0.14820
C1113       C  0.56141905  0.04272194  0.12083161     0.07330
C1114       C  0.53349209  0.02296788  0.10658657    -0.14820
H1115       H  0.51100145  0.97022238  0.09724186     0.11320
H1116       H  0.61226185  0.97018530  0.14372026     0.11320
H1117       H  0.61222559  0.03762560  0.14348819     0.11320
H1118       H  0.51097690  0.03719731  0.09699024     0.11320
C1119       C  0.98509846  0.98525861  0.39867226    -0.14820
C1120       C  0.95719444  0.96548624  0.38439545     0.07330
C1121       C  0.92832624  0.98500569  0.37273800    -0.14820
C1122       C  0.92830133  0.02365050  0.37256367    -0.14820
C1123       C  0.95714526  0.04330210  0.38403674     0.07330
C1124       C  0.98507740  0.02370248  0.39848880    -0.14820
H1125       H  0.00761080  0.97104351  0.40830791     0.11320
H1126       H  0.90640215  0.97054392  0.36167602     0.11320
H1127       H  0.90634523  0.03798082  0.36138177     0.11320
H1128       H  0.00756511  0.03802105  0.40799183     0.11320
C1129       C  0.98962086  0.85031539  0.48551992    -0.14820
C1130       C  0.00272649  0.82264332  0.47005063     0.07330
C1131       C  0.52139973  0.79455394  0.48706658    -0.14820
C1132       C  0.52741120  0.79458901  0.01930641    -0.14820
C1133       C  0.51443938  0.82246686  0.03495155     0.07330
C1134       C  0.99521354  0.85011383  0.01763432    -0.14820
H1135       H  0.97487124  0.87200637  0.47268254     0.11320
H1136       H  0.53185088  0.77309302  0.47544112     0.11320
H1137       H  0.54250131  0.77306220  0.03197096     0.11320
H1138       H  0.98463416  0.87179734  0.02890000     0.11320
C1139       C  0.53413058  0.88776765  0.28021040    -0.14820
C1140       C  0.00152293  0.88715091  0.28222023     0.07330
C1141       C  0.97721453  0.88806294  0.25479397    -0.14820
C1142       C  0.98532154  0.88756146  0.22601868    -0.14820
C1143       C  0.51792627  0.88697212  0.22400755     0.07330
C1144       C  0.54223817  0.88809547  0.25142433    -0.14820
H1145       H  0.55338165  0.88696874  0.30088832     0.11320
H1146       H  0.95184344  0.88721335  0.25553971     0.11320
H1147       H  0.96606776  0.88660762  0.20534711     0.11320
H1148       H  0.56760660  0.88727449  0.25066504     0.11320
C1149       C  0.78365148  0.52324454  0.10687711    -0.14820
C1150       C  0.81161945  0.54281089  0.12128934     0.07330
C1151       C  0.84042400  0.52310575  0.13281093    -0.14820
C1152       C  0.84033639  0.48445621  0.13266516    -0.14820
C1153       C  0.81144423  0.46498234  0.12099449     0.07330
C1154       C  0.78356514  0.48479992  0.10672913    -0.14820
H1155       H  0.76118653  0.53760498  0.09734956     0.11320
H1156       H  0.86239542  0.53740802  0.14398190     0.11320
H1157       H  0.86224270  0.46995838  0.14373286     0.11320
H1158       H  0.76103568  0.47062618  0.09709758     0.11320
C1159       C  0.68528240  0.75053530  0.10800715    -0.14820
C1160       C  0.71333084  0.75572751  0.13133767     0.07330
C1161       C  0.71424275  0.78497809  0.15225097    -0.14820
C1162       C  0.68657485  0.80677285  0.15121386    -0.14820
C1163       C  0.65781098  0.80005525  0.12886418     0.07330
C1164       C  0.65804796  0.77260501  0.10657451    -0.14820
H1165       H  0.68416423  0.72880698  0.09109682     0.11320
H1166       H  0.73575317  0.78980709  0.17026437     0.11320
H1167       H  0.68717509  0.82745010  0.16887825     0.11320
H1168       H  0.63648766  0.76663078  0.08892625     0.11320
C1169       C  0.90759038  0.73588143  0.10631392    -0.14820
C1170       C  0.90751280  0.70786869  0.12813987     0.07330
C1171       C  0.93650121  0.70041687  0.14997897    -0.14820
C1172       C  0.96424274  0.72207879  0.15105855    -0.14820
C1173       C  0.96318125  0.75191524  0.13071478     0.07330
C1174       C  0.93490194  0.75780699  0.10780435    -0.14820
H1175       H  0.88586506  0.74242587  0.08905586     0.11320
H1176       H  0.93724352  0.67925844  0.16726515     0.11320
H1177       H  0.98593115  0.71669674  0.16871726     0.11320
H1178       H  0.93365582  0.78000262  0.09130642     0.11320
C1179       C  0.87204842  0.71926620  0.25552344    -0.14820
C1180       C  0.86486558  0.73742057  0.22682790     0.07330
C1181       C  0.87790007  0.77248324  0.22435667    -0.14820
C1182       C  0.89778360  0.78903431  0.25004940    -0.14820
C1183       C  0.90495325  0.77087790  0.27874419     0.07330
C1184       C  0.89193511  0.73580874  0.28120741    -0.14820
H1185       H  0.86246967  0.69206925  0.25814548     0.11320
H1186       H  0.87323446  0.78685703  0.20248514     0.11320
H1187       H  0.90735983  0.81623685  0.24744333     0.11320
H1188       H  0.89659299  0.72143039  0.30307699     0.11320
C1189       C  0.67838360  0.52362141  0.37240450    -0.14820
C1190       C  0.70730551  0.54308075  0.38397750     0.07330
C1191       C  0.73521168  0.52325151  0.39815049    -0.14820
C1192       C  0.73511248  0.48480706  0.39799086    -0.14820
C1193       C  0.70710487  0.46525729  0.38365722     0.07330
C1194       C  0.67828343  0.48497500  0.37224545    -0.14820
H1195       H  0.65645489  0.53812803  0.36141186     0.11320
H1196       H  0.75776560  0.53741499  0.40770754     0.11320
H1197       H  0.75759267  0.47043617  0.40743709     0.11320
H1198       H  0.65627994  0.47068671  0.36114156     0.11320
C1199       C  0.55546442  0.72348830  0.35427647    -0.14820
C1200       C  0.55653527  0.75322420  0.37475597     0.07330
C1201       C  0.58478392  0.75892081  0.39775085    -0.14820
C1202       C  0.61202712  0.73684395  0.39923268    -0.14820
C1203       C  0.61204501  0.70884892  0.37734583     0.07330
C1204       C  0.58310865  0.70166210  0.35537644    -0.14820
H1205       H  0.53380715  0.71823499  0.33654500     0.11320
H1206       H  0.58605324  0.78102438  0.41435276     0.11320
H1207       H  0.63373610  0.74320326  0.41657366     0.11320
H1208       H  0.58232833  0.68054352  0.33803153     0.11320
C1209       C  0.83467919  0.74966100  0.39769464    -0.14820
C1210       C  0.80642127  0.75556049  0.37475490     0.07330
C1211       C  0.80540752  0.78538749  0.35440708    -0.14820
C1212       C  0.83313908  0.80707297  0.35554886    -0.14820
C1213       C  0.86209373  0.79964803  0.37743812     0.06740
C1214       C  0.86199889  0.77159854  0.39922848    -0.14820
H1215       H  0.83589833  0.72747701  0.41419741     0.11320
H1216       H  0.78374397  0.79078523  0.33672204     0.11320
H1217       H  0.83241169  0.82824814  0.33827875     0.11320
H1218       H  0.88370690  0.76507046  0.41651363     0.11320
C1219       C  0.64048485  0.77209197  0.28149357    -0.14820
C1220       C  0.65471233  0.73771622  0.27889835     0.07330
C1221       C  0.64850630  0.71991093  0.25003849    -0.14820
C1222       C  0.62843173  0.73613628  0.22430196    -0.14820
C1223       C  0.61424493  0.77053691  0.22688132     0.07330
C1224       C  0.62040776  0.78832267  0.25575085    -0.14820
H1225       H  0.64433888  0.78611861  0.30349815     0.11320
H1226       H  0.65902074  0.69322899  0.24733171     0.11320
H1227       H  0.62459144  0.72210535  0.20230013     0.11320
H1228       H  0.60990164  0.81501251  0.25844655     0.11320
C1229       C  0.75522789  0.71835847  0.48672456    -0.14820
C1230       C  0.75415414  0.68499871  0.47040718     0.07330
C1231       C  0.75901284  0.65173383  0.48697682    -0.14820
C1232       C  0.76452050  0.65171797  0.01904998    -0.14820
C1233       C  0.76577195  0.68498624  0.03541476     0.07330
C1234       C  0.76127620  0.71836792  0.01897659    -0.14820
H1235       H  0.75161079  0.74443241  0.47459563     0.11320
H1236       H  0.75820719  0.62554566  0.47513297     0.11320
H1237       H  0.76814091  0.62557125  0.03108318     0.11320
H1238       H  0.76206415  0.74441580  0.03101985     0.11320
C1239       C  0.78392278  0.62010127  0.27991720    -0.14820
C1240       C  0.75128428  0.62091797  0.28180339     0.07330
C1241       C  0.72704022  0.61998082  0.25434627    -0.14820
C1242       C  0.73526186  0.62037132  0.22562958    -0.14820
C1243       C  0.76790802  0.62088751  0.22374556     0.07330
C1244       C  0.79214153  0.61967919  0.25120204    -0.14820
H1245       H  0.80311800  0.62088157  0.30064065     0.11320
H1246       H  0.70165344  0.62095764  0.25502419     0.11320
H1247       H  0.71607206  0.62136682  0.20491013     0.11320
H1248       H  0.81753620  0.62041553  0.25053458     0.11320
Fe1249     Fe  0.75797778  0.64836736  0.87859695     1.65780
Fe1250     Fe  0.68180055  0.64444273  0.83651447     1.73250
Fe1251     Fe  0.70962456  0.72202261  0.87588100     1.54410
O1252       O  0.73601218  0.71318603  0.92118962    -0.83150
O1253       O  0.67737048  0.68416437  0.80387948    -0.81450
O1254       O  0.75372687  0.65493542  0.92320015    -0.85650
O1255       O  0.78441916  0.69714483  0.88182672    -0.80510
O1256       O  0.66907561  0.70705917  0.89042250    -0.82280
O1257       O  0.71389049  0.61801213  0.81420797    -0.85030
C1258       C  0.77865732  0.73013254  0.87255624     0.95740
C1259       C  0.74761174  0.68440877  0.93631469     1.03180
O1260       O  0.71632209  0.67180687  0.86373474    -1.14010
O1261       O  0.68461516  0.60189745  0.86764110    -0.76440
O1262       O  0.73818877  0.59589339  0.87849567    -0.79930
O1263       O  0.75002364  0.74180330  0.86255525    -0.80620
C1264       C  0.71002073  0.58273991  0.87703938     0.94640
O1265       O  0.76267335  0.64191160  0.83380148    -0.78580
O1266       O  0.64440865  0.66968082  0.85296092    -0.83770
C1267       C  0.67280462  0.71834965  0.80653427     0.97260
C1268       C  0.64349496  0.69325797  0.87397513     1.03180
O1269       O  0.68152987  0.73550692  0.83214674    -0.79410
C1270       C  0.74232419  0.62689173  0.81174456     1.01480
Fe1271     Fe  0.76141552  0.64834585  0.62699322     1.65780
Fe1272     Fe  0.83758551  0.64402814  0.66910123     1.73250
Fe1273     Fe  0.80993559  0.72180003  0.62993921     1.54410
O1274       O  0.78344279  0.71320291  0.58462962    -0.83150
O1275       O  0.84232855  0.68376565  0.70181076    -0.81450
O1276       O  0.76589481  0.65488094  0.58245256    -0.85650
O1277       O  0.73511034  0.69727804  0.62382129    -0.80510
O1278       O  0.85045537  0.70672808  0.61533655    -0.82280
O1279       O  0.80537935  0.61788786  0.69142284    -0.85030
C1280       C  0.74098237  0.73016361  0.63335384     0.95740
C1281       C  0.77203251  0.68439540  0.56944482     1.03180
O1282       O  0.80313884  0.67158031  0.64196207    -1.14010
O1283       O  0.83455867  0.60143514  0.63793922    -0.76440
O1284       O  0.78096835  0.59575767  0.62701932    -0.79930
O1285       O  0.76965098  0.74164683  0.64344336    -0.80620
C1286       C  0.80907806  0.58244672  0.62844614     0.94640
O1287       O  0.75662192  0.64187790  0.67175481    -0.78580
O1288       O  0.87501865  0.66897237  0.65256189    -0.83770
C1289       C  0.84684418  0.71796573  0.69919906     0.97260
C1290       C  0.87599077  0.69260245  0.63161993     1.03180
O1291       O  0.83806353  0.73513802  0.67362701    -0.79410
C1292       C  0.77692746  0.62682537  0.69382874     1.01480
Fe1293     Fe  0.00779899  0.86020826  0.87918574     1.65780
Fe1294     Fe  0.93182611  0.86413632  0.83672063     1.73250
Fe1295     Fe  0.95981573  0.78631542  0.87562697     1.54410
O1296       O  0.00020066  0.76716128  0.86199169    -0.83150
O1297       O  0.89450907  0.83884698  0.85320139    -0.81450
O1298       O  0.53436901  0.81139704  0.88263896    -0.85650
O1299       O  0.00261898  0.85359119  0.92359745    -0.80510
O1300       O  0.93173132  0.77307283  0.83192986    -0.82280
O1301       O  0.93454366  0.90665606  0.86793564    -0.85030
C1302       C  0.99699204  0.82363755  0.93626744     0.95740
C1303       C  0.52876431  0.77864369  0.87265201     1.03180
O1304       O  0.96629155  0.83670812  0.86387514    -1.14010
O1305       O  0.96410865  0.89046768  0.81459284    -0.76440
O1306       O  0.01292951  0.86669315  0.83445281    -0.79930
O1307       O  0.98642541  0.79466371  0.92093942    -0.80620
C1308       C  0.99258284  0.88150852  0.81224152     0.94640
O1309       O  0.98807762  0.91268820  0.87891058    -0.78580
O1310       O  0.92730967  0.82454838  0.80389096    -0.83770
C1311       C  0.89359977  0.81503769  0.87403916     0.97260
C1312       C  0.92290855  0.79031563  0.80640563     1.03180
O1313       O  0.91916545  0.80086387  0.89026049    -0.79410
C1314       C  0.95991115  0.92583141  0.87741101     1.01480
Fe1315     Fe  0.51102799  0.85944639  0.62703667     1.65780
Fe1316     Fe  0.58730999  0.86388736  0.66920927     1.73250
Fe1317     Fe  0.56010939  0.78623709  0.62965096     1.54420
O1318       O  0.51956461  0.76578518  0.64239033    -0.83150
O1319       O  0.62505906  0.83893994  0.65310454    -0.81450
O1320       O  0.98486009  0.81060141  0.62419381    -0.85650
O1321       O  0.51453726  0.85260128  0.58216823    -0.80510
O1322       O  0.58777103  0.77279995  0.67356146    -0.82280
O1323       O  0.58436511  0.90637768  0.63803098    -0.85030
C1324       C  0.52148305  0.82344691  0.56909351     0.95740
C1325       C  0.49085097  0.77747163  0.63292014     1.03180
O1326       O  0.55293187  0.83633287  0.64182202    -1.14010
O1327       O  0.55514444  0.89026019  0.69142442    -0.76440
O1328       O  0.50652549  0.86603998  0.67193842    -0.79930
O1329       O  0.53431266  0.79520823  0.58425718    -0.80620
C1330       C  0.52681565  0.88114491  0.69398316     0.94640
O1331       O  0.53070907  0.91197369  0.62675225    -0.78580
O1332       O  0.59175792  0.82414374  0.70184206    -0.83770
C1333       C  0.62624013  0.81544124  0.63211967     0.97260
C1334       C  0.59631690  0.78994809  0.69919980     1.03180
O1335       O  0.60079764  0.80156261  0.61553049    -0.79410
C1336       C  0.55886011  0.92528957  0.62832605     1.01480
Fe1337     Fe  0.75727789  0.35972644  0.87770627     1.65780
Fe1338     Fe  0.68096111  0.36404241  0.83585117     1.73250
Fe1339     Fe  0.70859918  0.28638487  0.87520220     1.54410
O1340       O  0.74886690  0.26624185  0.86180423    -0.83150
O1341       O  0.64353532  0.33916707  0.85243476    -0.81450
O1342       O  0.78351056  0.31082475  0.88069227    -0.85650
O1343       O  0.75339789  0.35316717  0.92242583    -0.80510
O1344       O  0.68047366  0.27291161  0.83154295    -0.82280
O1345       O  0.68408289  0.40669086  0.86696401    -0.85030
C1346       C  0.74712873  0.32379569  0.93556332     0.95740
C1347       C  0.77756404  0.27781730  0.87154751     1.03180
O1348       O  0.71546673  0.33653233  0.86300999    -1.14010
O1349       O  0.71299138  0.39018360  0.81335509    -0.76440
O1350       O  0.76174834  0.36615839  0.83284339    -0.79930
O1351       O  0.73508084  0.29518663  0.92044663    -0.80620
C1352       C  0.74137769  0.38119322  0.81082347     0.94640
O1353       O  0.73769960  0.41229362  0.87783571    -0.78580
O1354       O  0.67623601  0.32420845  0.80324232    -0.83770
C1355       C  0.64256199  0.31563142  0.87343696     0.97260
C1356       C  0.67176817  0.29001130  0.80592719     1.03180
O1357       O  0.66810743  0.30162284  0.88978939    -0.79410
C1358       C  0.70959993  0.42563057  0.87645253     1.01480
Fe1359     Fe  0.76080508  0.35963305  0.62604358     1.65780
Fe1360     Fe  0.83677035  0.36362065  0.66848517     1.73250
Fe1361     Fe  0.80908660  0.28593841  0.62921706     1.54410
O1362       O  0.76864356  0.26637091  0.64255552    -0.83150
O1363       O  0.87424172  0.33839459  0.65215018    -0.81450
O1364       O  0.73433942  0.31079905  0.62256264    -0.85650
O1365       O  0.76571213  0.35313577  0.58162908    -0.80510
O1366       O  0.83710941  0.27258129  0.67298216    -0.82280
O1367       O  0.83408998  0.40613972  0.63734362    -0.85030
C1368       C  0.77172081  0.32351768  0.56866291     0.95740
C1369       C  0.74003759  0.27793057  0.63219371     1.03180
O1370       O  0.80238313  0.33620167  0.64120559    -1.14010
O1371       O  0.80443749  0.38999582  0.69055278    -0.76440
O1372       O  0.75571491  0.36603183  0.67073398    -0.79930
O1373       O  0.78273925  0.29458202  0.58385360    -0.80620
C1374       C  0.77596548  0.38105182  0.69288009     0.94640
O1375       O  0.78053423  0.41215238  0.62635507    -0.78580
O1376       O  0.84112725  0.32395841  0.70117862    -0.83770
C1377       C  0.87523388  0.31479069  0.63116805     0.97260
C1378       C  0.84576151  0.28978028  0.69857455     1.03180
O1379       O  0.84970859  0.30081043  0.61475228    -0.79410
C1380       C  0.80870892  0.42531373  0.62789652     1.01480
Fe1381     Fe  0.00754639  0.14871566  0.87803754     1.65780
Fe1382     Fe  0.93129364  0.14427498  0.83587705     1.73250
Fe1383     Fe  0.95849711  0.22191674  0.87544510     1.54420
O1384       O  0.98439920  0.21297062  0.92081961    -0.83150
O1385       O  0.92684295  0.18403499  0.80326371    -0.81450
O1386       O  0.00393352  0.15548746  0.92285928    -0.85650
O1387       O  0.53371242  0.19758246  0.88093391    -0.80510
O1388       O  0.91782950  0.20654428  0.88960132    -0.82280
O1389       O  0.96347241  0.11792985  0.81366191    -0.85030
C1390       C  0.52772229  0.23069743  0.87215575     0.95740
C1391       C  0.99711350  0.18466906  0.93596761     1.03180
O1392       O  0.96566059  0.17183088  0.86325250    -1.14010
O1393       O  0.93423543  0.10179418  0.86705635    -0.76440
O1394       O  0.98788469  0.09617643  0.87828472    -0.79930
O1395       O  0.99900699  0.24236139  0.86264051    -0.80620
C1396       C  0.95973664  0.08288219  0.87676151     0.94640
O1397       O  0.01208200  0.14217737  0.83315515    -0.78580
O1398       O  0.89356269  0.16919213  0.85200302    -0.83770
C1399       C  0.92224296  0.21822021  0.80592132     0.97260
C1400       C  0.89238434  0.19266146  0.87300735     1.03180
O1401       O  0.93077152  0.23535617  0.83156547    -0.79410
C1402       C  0.99179703  0.12707401  0.81110797     1.01480
Fe1403     Fe  0.51090784  0.14808795  0.62597343     1.65780
Fe1404     Fe  0.58686460  0.14412152  0.66841127     1.73250
Fe1405     Fe  0.55895439  0.22190129  0.62942314     1.54420
O1406       O  0.53228295  0.21352739  0.58414379    -0.83150
O1407       O  0.59134152  0.18375244  0.70119288    -0.81450
O1408       O  0.51608902  0.15461371  0.58157540    -0.85650
O1409       O  0.98440106  0.19694277  0.62247524    -0.80510
O1410       O  0.59954637  0.20723435  0.61474509    -0.82280
O1411       O  0.55456507  0.11784459  0.69055335    -0.85030
C1412       C  0.49004691  0.22969537  0.63244915     0.95740
C1413       C  0.52171010  0.18453102  0.56884846     1.03180
O1414       O  0.55243063  0.17154574  0.64123562    -1.14010
O1415       O  0.58412680  0.10155203  0.63723700    -0.76440
O1416       O  0.53058658  0.09557344  0.62630058    -0.79930
O1417       O  0.51862262  0.24114461  0.64310174    -0.80620
C1418       C  0.55874100  0.08239229  0.62779548     0.94640
O1419       O  0.50577438  0.14169425  0.67070041    -0.78580
O1420       O  0.62419642  0.16937242  0.65190160    -0.83770
C1421       C  0.59582097  0.21795866  0.69863168     0.97260
C1422       C  0.62511061  0.19309762  0.63099754     1.03180
O1423       O  0.58710950  0.23516269  0.67307979    -0.79410
C1424       C  0.52609910  0.12684226  0.69290356     1.01480
C1425       C  0.99329405  0.21491097  0.98588150    -0.14820
C1426       C  0.00417773  0.18558224  0.97012046     0.07330
C1427       C  0.52134877  0.15647108  0.98733821    -0.14820
C1428       C  0.52692545  0.15629089  0.51944066    -0.14820
C1429       C  0.51593121  0.18544195  0.53504015     0.07330
C1430       C  0.99936768  0.21496679  0.51812330    -0.14820
H1431       H  0.97985137  0.23764330  0.97331833     0.11320
H1432       H  0.53028655  0.13359122  0.97601320     0.11320
H1433       H  0.54006263  0.13345079  0.53216534     0.11320
H1434       H  0.99056570  0.23762332  0.52982182     0.11320
C1435       C  0.97638923  0.12027684  0.75366561    -0.14820
C1436       C  0.00069131  0.12128647  0.78108990     0.07330
C1437       C  0.53330092  0.12063490  0.77910126    -0.14820
C1438       C  0.54142707  0.12017299  0.75033699    -0.14820
C1439       C  0.51713323  0.12118661  0.72290558     0.07330
C1440       C  0.98451739  0.12064269  0.72489203    -0.14820
H1441       H  0.95101905  0.12115664  0.75441381     0.11320
H1442       H  0.55254466  0.12150626  0.79978385     0.11320
H1443       H  0.56680354  0.12096731  0.74960676     0.11320
H1444       H  0.96527822  0.12152400  0.70420742     0.11320
C1445       C  0.68405278  0.25820239  0.60701644    -0.14820
C1446       C  0.71227276  0.25250683  0.63005032     0.07330
C1447       C  0.71325608  0.22288206  0.65059231    -0.14820
C1448       C  0.68553942  0.20120625  0.64953392    -0.14820
C1449       C  0.65661716  0.20843854  0.62754717     0.07330
C1450       C  0.65673733  0.23627394  0.60557743    -0.14820
H1451       H  0.68285488  0.28022535  0.59037289     0.11320
H1452       H  0.73488550  0.21764191  0.66836137     0.11320
H1453       H  0.68624693  0.18020567  0.66694250     0.11320
H1454       H  0.63504995  0.24264552  0.58821323     0.11320
C1455       C  0.90688969  0.27165658  0.60571331    -0.14820
C1456       C  0.90674226  0.29938815  0.62779004     0.07330
C1457       C  0.93559686  0.30643120  0.64991495    -0.14820
C1458       C  0.96327138  0.28466636  0.65099508    -0.14820
C1459       C  0.96230438  0.25514367  0.63033216     0.07330
C1460       C  0.93416122  0.24963798  0.60717019    -0.14820
H1461       H  0.88524982  0.26543622  0.58824033     0.11320
H1462       H  0.93627446  0.32734963  0.66740307     0.11320
H1463       H  0.98485245  0.28976482  0.66885861     0.11320
H1464       H  0.93298962  0.22770636  0.59042984     0.11320
C1465       C  0.89017731  0.27207281  0.78081134    -0.14820
C1466       C  0.90430115  0.23762903  0.77824753     0.07330
C1467       C  0.89808394  0.21980631  0.74939521    -0.14820
C1468       C  0.87801411  0.23603557  0.72365564    -0.14820
C1469       C  0.86385096  0.27045410  0.72622954     0.07330
C1470       C  0.87011234  0.28830525  0.75506959    -0.14820
H1471       H  0.89406714  0.28613663  0.80280145     0.11320
H1472       H  0.90854077  0.19308608  0.74670802     0.11320
H1473       H  0.87411547  0.22196782  0.70166656     0.11320
H1474       H  0.85965107  0.31502322  0.75775494     0.11320
C1475       C  0.61096661  0.27235517  0.89876001    -0.14820
C1476       C  0.61104284  0.30033739  0.87690779     0.07330
C1477       C  0.58206018  0.30773826  0.85504320    -0.14820
C1478       C  0.55432684  0.28606425  0.85397210    -0.14820
C1479       C  0.55538775  0.25626275  0.87435031     0.07330
C1480       C  0.58366147  0.25041668  0.89727964    -0.14820
H1481       H  0.63268869  0.26584584  0.91603424     0.11320
H1482       H  0.58131599  0.32887033  0.83773513     0.11320
H1483       H  0.53264483  0.29141085  0.83629577     0.11320
H1484       H  0.58490845  0.22824734  0.91380123     0.11320
C1485       C  0.83330148  0.25767361  0.89688399    -0.14820
C1486       C  0.80521186  0.25224169  0.87365088     0.07330
C1487       C  0.80428714  0.22279044  0.85292989    -0.14820
C1488       C  0.83199652  0.20104241  0.85402921    -0.14820
C1489       C  0.86080281  0.20801189  0.87625903     0.07330
C1490       C  0.86057044  0.23565274  0.89838780    -0.14820
H1491       H  0.83442632  0.27956361  0.91365537     0.11320
H1492       H  0.78274074  0.21777590  0.83500447     0.11320
H1493       H  0.83138847  0.18019705  0.83649577     0.11320
H1494       H  0.88215707  0.24182254  0.91594273     0.11320
C1495       C  0.61966893  0.21980228  0.75519772    -0.14820
C1496       C  0.61375322  0.23738778  0.72627684     0.07330
C1497       C  0.62805655  0.27168902  0.72362930    -0.14820
C1498       C  0.64796458  0.28806105  0.74938135    -0.14820
C1499       C  0.65386510  0.27049823  0.77831063     0.07330
C1500       C  0.63957197  0.23618724  0.78096183    -0.14820
H1501       H  0.60905951  0.19319269  0.75792163     0.11320
H1502       H  0.62440950  0.28554142  0.70157179     0.11320
H1503       H  0.65857551  0.31466455  0.74663853     0.11320
H1504       H  0.64322177  0.22234666  0.80302425     0.11320
C1505       C  0.75305021  0.28993250  0.98583242    -0.14820
C1506       C  0.75400012  0.32309381  0.96968166     0.07330
C1507       C  0.76110496  0.35605830  0.98645386    -0.14820
C1508       C  0.76666477  0.35601261  0.51853127    -0.14820
C1509       C  0.76573067  0.32295569  0.53468062     0.07330
C1510       C  0.75915224  0.28982727  0.51808220    -0.14820
H1511       H  0.74768219  0.26407596  0.97357456     0.11320
H1512       H  0.76198299  0.38209301  0.97477946     0.11320
H1513       H  0.77197810  0.38191463  0.53075109     0.11320
H1514       H  0.75823827  0.26396852  0.53000015     0.11320
C1515       C  0.78288772  0.38820036  0.77894745    -0.14820
C1516       C  0.75026429  0.38705126  0.78084394     0.07330
C1517       C  0.72600580  0.38755826  0.75338867    -0.14820
C1518       C  0.73422415  0.38711160  0.72466726    -0.14820
C1519       C  0.76687414  0.38696811  0.72277730     0.07330
C1520       C  0.79109558  0.38856876  0.75022958    -0.14820
H1521       H  0.80208978  0.38774779  0.79967365     0.11320
H1522       H  0.70063366  0.38629880  0.75408614     0.11320
H1523       H  0.71504070  0.38579474  0.70395750     0.11320
H1524       H  0.81649692  0.38812402  0.74956881     0.11320
C1525       C  0.53350210  0.98452265  0.60673066    -0.14820
C1526       C  0.56144534  0.96489473  0.62111343     0.07330
C1527       C  0.59029900  0.98453274  0.63258233    -0.14820
C1528       C  0.59028560  0.02318016  0.63244572    -0.14820
C1529       C  0.56141907  0.04272192  0.62083167     0.07330
C1530       C  0.53349213  0.02296787  0.60658657    -0.14820
H1531       H  0.51100151  0.97022237  0.59724174     0.11320
H1532       H  0.61226187  0.97018528  0.64372029     0.11320
H1533       H  0.61222558  0.03762558  0.64348831     0.11320
H1534       H  0.51097694  0.03719730  0.59699022     0.11320
C1535       C  0.98509850  0.98525862  0.89867230    -0.14820
C1536       C  0.95719448  0.96548627  0.88439546     0.07330
C1537       C  0.92832627  0.98500573  0.87273804    -0.14820
C1538       C  0.92830135  0.02365054  0.87256380    -0.14820
C1539       C  0.95714528  0.04330213  0.88403691     0.07330
C1540       C  0.98507742  0.02370250  0.89848892    -0.14820
H1541       H  0.00761083  0.97104351  0.90830792     0.11320
H1542       H  0.90640219  0.97054397  0.86167604     0.11320
H1543       H  0.90634525  0.03798087  0.86138193     0.11320
H1544       H  0.00756513  0.03802105  0.90799198     0.11320
C1545       C  0.98962418  0.85031814  0.98552009    -0.14820
C1546       C  0.00272650  0.82264352  0.97005060     0.07330
C1547       C  0.52139620  0.79455152  0.98706641    -0.14820
C1548       C  0.52741471  0.79459142  0.51930657    -0.14820
C1549       C  0.51443947  0.82246664  0.53495152     0.07330
C1550       C  0.99521033  0.85011107  0.51763417    -0.14820
H1551       H  0.97487715  0.87201113  0.97268287     0.11320
H1552       H  0.53184467  0.77308845  0.97544086     0.11320
H1553       H  0.54250757  0.77306681  0.53197127     0.11320
H1554       H  0.98462839  0.87179251  0.52889978     0.11320
C1555       C  0.53413060  0.88776772  0.78021031    -0.14820
C1556       C  0.00152295  0.88715098  0.78222014     0.07330
C1557       C  0.97721455  0.88806302  0.75479388    -0.14820
C1558       C  0.98532157  0.88756153  0.72601859    -0.14820
C1559       C  0.51792630  0.88697217  0.72400747     0.07330
C1560       C  0.54223819  0.88809553  0.75142425    -0.14820
H1561       H  0.55338167  0.88696881  0.80088824     0.11320
H1562       H  0.95184347  0.88721342  0.75553961     0.11320
H1563       H  0.96606779  0.88660768  0.70534702     0.11320
H1564       H  0.56760663  0.88727455  0.75066497     0.11320
C1565       C  0.78365153  0.52324453  0.60687708    -0.14820
C1566       C  0.81161950  0.54281086  0.62128935     0.07330
C1567       C  0.84042403  0.52310571  0.63281098    -0.14820
C1568       C  0.84033641  0.48445617  0.63266521    -0.14820
C1569       C  0.81144424  0.46498232  0.62099451     0.07330
C1570       C  0.78356517  0.48479990  0.60672911    -0.14820
H1571       H  0.76118659  0.53760498  0.59734950     0.11320
H1572       H  0.86239545  0.53740797  0.64398197     0.11320
H1573       H  0.86224269  0.46995833  0.64373294     0.11320
H1574       H  0.76103572  0.47062617  0.59709754     0.11320
C1575       C  0.68528254  0.75053540  0.60800715    -0.14820
C1576       C  0.71333096  0.75572753  0.63133772     0.07330
C1577       C  0.71424286  0.78497805  0.65225108    -0.14820
C1578       C  0.68657497  0.80677283  0.65121397    -0.14820
C1579       C  0.65781113  0.80005530  0.62886425     0.07330
C1580       C  0.65804812  0.77260513  0.60657452    -0.14820
H1581       H  0.68416438  0.72880713  0.59109678     0.11320
H1582       H  0.73575327  0.78980698  0.67026451     0.11320
H1583       H  0.68717521  0.82745002  0.66887841     0.11320
H1584       H  0.63648783  0.76663096  0.58892622     0.11320
C1585       C  0.90759041  0.73588144  0.60631393    -0.14820
C1586       C  0.90751285  0.70786867  0.62813985     0.07330
C1587       C  0.93650127  0.70041683  0.64997893    -0.14820
C1588       C  0.96424281  0.72207874  0.65105850    -0.14820
C1589       C  0.96318130  0.75191520  0.63071474     0.07330
C1590       C  0.93490198  0.75780698  0.60780434    -0.14820
H1591       H  0.88586509  0.74242589  0.58905588     0.11320
H1592       H  0.93724359  0.67925839  0.66726510     0.11320
H1593       H  0.98593123  0.71669667  0.66871719     0.11320
H1594       H  0.93365585  0.78000263  0.59130642     0.11320
C1595       C  0.87204846  0.71926620  0.75552342    -0.14820
C1596       C  0.86486563  0.73742056  0.72682787     0.07330
C1597       C  0.87790011  0.77248323  0.72435664    -0.14820
C1598       C  0.89778364  0.78903431  0.75004936    -0.14820
C1599       C  0.90495329  0.77087792  0.77874415     0.07330
C1600       C  0.89193515  0.73580876  0.78120738    -0.14820
H1601       H  0.86246972  0.69206926  0.75814547     0.11320
H1602       H  0.87323450  0.78685701  0.70248510     0.11320
H1603       H  0.90735986  0.81623686  0.74744328     0.11320
H1604       H  0.89659303  0.72143041  0.80307697     0.11320
C1605       C  0.67838361  0.52362144  0.87240451    -0.14820
C1606       C  0.70730553  0.54308078  0.88397752     0.07330
C1607       C  0.73521169  0.52325152  0.89815051    -0.14820
C1608       C  0.73511247  0.48480707  0.89799088    -0.14820
C1609       C  0.70710485  0.46525732  0.88365724     0.07330
C1610       C  0.67828343  0.48497504  0.87224547    -0.14820
H1611       H  0.65645490  0.53812808  0.86141187     0.11320
H1612       H  0.75776561  0.53741499  0.90770755     0.11320
H1613       H  0.75759266  0.47043617  0.90743712     0.11320
H1614       H  0.65627993  0.47068676  0.86114158     0.11320
C1615       C  0.55546452  0.72348840  0.85427639    -0.14820
C1616       C  0.55653537  0.75322432  0.87475588     0.07330
C1617       C  0.58478402  0.75892094  0.89775076    -0.14820
C1618       C  0.61202721  0.73684407  0.89923261    -0.14820
C1619       C  0.61204510  0.70884902  0.87734579     0.07330
C1620       C  0.58310874  0.70166219  0.85537639    -0.14820
H1621       H  0.53380726  0.71823508  0.83654493     0.11320
H1622       H  0.58605333  0.78102453  0.91435265     0.11320
H1623       H  0.63373619  0.74320339  0.91657360     0.11320
H1624       H  0.58232843  0.68054359  0.83803150     0.11320
C1625       C  0.83467935  0.74966086  0.89769458    -0.14820
C1626       C  0.80642139  0.75556045  0.87475491     0.07330
C1627       C  0.80540761  0.78538752  0.85440716    -0.14820
C1628       C  0.83313917  0.80707300  0.85554893    -0.14820
C1629       C  0.86209385  0.79964798  0.87743813     0.06740
C1630       C  0.86199906  0.77159839  0.89922842    -0.14820
H1631       H  0.83589852  0.72747681  0.91419730     0.11320
H1632       H  0.78374403  0.79078533  0.83672218     0.11320
H1633       H  0.83241174  0.82824824  0.83827888     0.11320
H1634       H  0.88370709  0.76507025  0.91651351     0.11320
C1635       C  0.64048491  0.77209200  0.78149358    -0.14820
C1636       C  0.65471239  0.73771625  0.77889835     0.07330
C1637       C  0.64850633  0.71991095  0.75003850    -0.14820
C1638       C  0.62843174  0.73613629  0.72430198    -0.14820
C1639       C  0.61424495  0.77053692  0.72688134     0.07330
C1640       C  0.62040779  0.78832269  0.75575086    -0.14820
H1641       H  0.64433895  0.78611863  0.80349815     0.11320
H1642       H  0.65902077  0.69322901  0.74733171     0.11320
H1643       H  0.62459144  0.72210536  0.70230015     0.11320
H1644       H  0.60990167  0.81501253  0.75844656     0.11320
C1645       C  0.75522794  0.71835849  0.98672456    -0.14820
C1646       C  0.75415419  0.68499873  0.97040719     0.07330
C1647       C  0.75901287  0.65173384  0.98697683    -0.14820
C1648       C  0.76452049  0.65171795  0.51904997    -0.14820
C1649       C  0.76577195  0.68498622  0.53541476     0.07330
C1650       C  0.76127618  0.71836790  0.51897659    -0.14820
H1651       H  0.75161086  0.74443243  0.97459563     0.11320
H1652       H  0.75820723  0.62554568  0.97513299     0.11320
H1653       H  0.76814092  0.62557123  0.53108317     0.11320
H1654       H  0.76206413  0.74441578  0.53101985     0.11320
C1655       C  0.78392284  0.62010125  0.77991721    -0.14820
C1656       C  0.75128434  0.62091796  0.78180340     0.07330
C1657       C  0.72704029  0.61998082  0.75434628    -0.14820
C1658       C  0.73526193  0.62037131  0.72562959    -0.14820
C1659       C  0.76790809  0.62088749  0.72374556     0.07330
C1660       C  0.79214159  0.61967916  0.75120204    -0.14820
H1661       H  0.80311807  0.62088155  0.80064066     0.11320
H1662       H  0.70165351  0.62095764  0.75502421     0.11320
H1663       H  0.71607213  0.62136681  0.70491014     0.11320
H1664       H  0.81753626  0.62041550  0.75053459     0.11320
loop_ 
_geom_bond_atom_site_label_1 
_geom_bond_atom_site_label_2 
_geom_bond_distance 
_geom_bond_site_symmetry_2 
_ccdc_geom_bond_type 
Fe1          O17   2.063       .  S
Fe1           O7   2.082       .  S
Fe1          O14   2.080       .  S
Fe1           O6   2.049       .  S
Fe1          O12   1.935       .  S
Fe2           O5   2.025       .  S
Fe2           O9   2.089       .  S
Fe2          O13   2.060       .  S
Fe2          O18   2.099       .  S
Fe2          O12   1.946       .  S
Fe3          O21   2.097       .  S
Fe3           O8   2.042       .  S
Fe3          O15   2.063       .  S
Fe3           O4   2.098       .  S
Fe3          O12   1.939       .  S
O4           C11   1.279       .  A
O5           C19   1.264       .  A
O6           C11   1.272       .  A
O7           C10   1.271       .  A
O8           C20   1.265       .  A
O9           C22   1.275       .  A
C10          O15   1.266       .  A
C10         C378   1.480       .  S
C11         C398   1.481       .  S
O13          C16   1.269       .  A
O14          C16   1.273       .  A
C16         C358   1.481       .  S
O17          C22   1.273       .  A
O18          C20   1.275       .  A
C19          O21   1.278       .  A
C19         C388   1.473       .  S
C20         C371   1.486       .  S
C22         C408   1.483       .  S
Fe23         O39   2.063       .  S
Fe23         O29   2.083       .  S
Fe23         O36   2.079       .  S
Fe23         O28   2.049       .  S
Fe23         O34   1.935       .  S
Fe24         O27   2.026       .  S
Fe24         O31   2.089       .  S
Fe24         O35   2.061       .  S
Fe24         O40   2.099       .  S
Fe24         O34   1.946       .  S
Fe25         O43   2.095       .  S
Fe25         O30   2.043       .  S
Fe25         O37   2.063       .  S
Fe25         O26   2.098       .  S
Fe25         O34   1.939       .  S
O26          C33   1.278       .  A
O27          C41   1.265       .  A
O28          C33   1.272       .  A
O29          C32   1.271       .  A
O30          C42   1.266       .  A
O31          C44   1.276       .  A
C32          O37   1.266       .  A
C32         C328   1.480       .  S
C33         C401   1.478       .  S
O35          C38   1.269       .  A
O36          C38   1.273       .  A
C38         C318   1.482       .  S
O39          C44   1.273       .  A
O40          C42   1.275       .  A
C41          O43   1.277       .  A
C41         C348   1.472       .  S
C42         C338   1.486       .  S
C44         C411   1.483       .  S
Fe45         O61   2.077       .  S
Fe45         O51   2.053       .  S
Fe45         O58   2.066       .  S
Fe45        O882   2.084       .  S
Fe45         O56   1.934       .  S
Fe46         O49   2.099       .  S
Fe46         O53   2.062       .  S
Fe46         O57   2.090       .  S
Fe46         O62   2.027       .  S
Fe46         O56   1.945       .  S
Fe47         O65   2.044       .  S
Fe47         O52   2.093       .  S
Fe47         O59   2.098       .  S
Fe47         O48   2.061       .  S
Fe47         O56   1.938       .  S
O48         C887   1.266       .  A
O49          C63   1.275       .  A
O50        Fe877   2.084       .  S
O50          C55   1.272       .  A
O51          C54   1.272       .  A
O52          C64   1.277       .  A
O53          C66   1.269       .  A
C54          O59   1.277       .  A
C54         C298   1.469       .  S
C55         O880   1.266       .  A
C55         C368   1.480       .  S
O57          C60   1.276       .  A
O58          C60   1.274       .  A
C60         C308   1.484       .  S
O61          C66   1.272       .  A
O62          C64   1.264       .  A
C63          O65   1.266       .  A
C63         C381   1.486       .  S
C64         C351   1.472       .  S
C66         C288   1.481       .  S
Fe67         O83   2.081       .  S
Fe67         O73   2.052       .  S
Fe67         O80   2.065       .  S
Fe67        O904   2.079   1_455  S
Fe67         O78   1.938       .  S
Fe68         O71   2.100       .  S
Fe68         O75   2.060       .  S
Fe68         O79   2.088       .  S
Fe68         O84   2.026       .  S
Fe68         O78   1.950       .  S
Fe69         O87   2.042       .  S
Fe69         O74   2.097       .  S
Fe69         O81   2.094       .  S
Fe69         O70   2.065       .  S
Fe69         O78   1.939       .  S
O70          C77   1.266   1_455  A
O71          C85   1.274       .  A
O72        Fe899   2.079       .  S
O72         C909   1.271       .  A
O73          C76   1.273       .  A
O74          C86   1.278       .  A
O75          C88   1.270       .  A
C76          O81   1.278       .  A
C76         C301   1.482       .  S
C77         O904   1.271       .  A
C77        C1173   1.480       .  S
O79          C82   1.275       .  A
O80          C82   1.273       .  A
C82         C311   1.484       .  S
O83          C88   1.274       .  A
O84          C86   1.265       .  A
C85          O87   1.265       .  A
C85         C331   1.486       .  S
C86         C391   1.472       .  S
C88         C278   1.482       .  S
Fe89        O105   2.079       .  S
Fe89         O95   2.049       .  S
Fe89        O102   2.063       .  S
Fe89         O94   2.081       .  S
Fe89        O100   1.936       .  S
Fe90         O93   2.099       .  S
Fe90         O97   2.060       .  S
Fe90        O101   2.089       .  S
Fe90        O106   2.026       .  S
Fe90        O100   1.948       .  S
Fe91        O109   2.043       .  S
Fe91         O96   2.095       .  S
Fe91        O103   2.096       .  S
Fe91         O92   2.064       .  S
Fe91        O100   1.939       .  S
O92          C99   1.266       .  A
O93         C107   1.274       .  A
O94          C99   1.271       .  A
O95          C98   1.272       .  A
O96         C108   1.278       .  A
O97         C110   1.270       .  A
C98         O103   1.278       .  A
C98         C258   1.481       .  S
C99         C238   1.480       .  S
O101        C104   1.275       .  A
O102        C104   1.273       .  A
C104        C268   1.483       .  S
O105        C110   1.273       .  A
O106        C108   1.265       .  A
C107        O109   1.266       .  A
C107        C228   1.486       .  S
C108        C251   1.471       .  S
C110        C361   1.481       .  S
Fe111       O127   2.079       .  S
Fe111       O117   2.049       .  S
Fe111       O124   2.063       .  S
Fe111       O116   2.083       .  S
Fe111       O122   1.934       .  S
Fe112       O115   2.100       .  S
Fe112       O119   2.061       .  S
Fe112       O123   2.089       .  S
Fe112       O128   2.026       .  S
Fe112       O122   1.945       .  S
Fe113       O131   2.042       .  S
Fe113       O118   2.096       .  S
Fe113       O125   2.098       .  S
Fe113       O114   2.063       .  S
Fe113       O122   1.938       .  S
O114        C121   1.266       .  A
O115        C129   1.275       .  A
O116        C121   1.272       .  A
O117        C120   1.272       .  A
O118        C130   1.278       .  A
O119        C132   1.269       .  A
C120        O125   1.278       .  A
C120        C261   1.477       .  S
C121        C198   1.481       .  S
O123        C126   1.276       .  A
O124        C126   1.273       .  A
C126        C271   1.483       .  S
O127        C132   1.273       .  A
O128        C130   1.264       .  A
C129        O131   1.266       .  A
C129        C208   1.485       .  S
C130        C221   1.472       .  S
C132        C321   1.481       .  S
Fe133       O149   2.065       .  S
Fe133       O146   2.081       .  S
Fe133       O138   2.051       .  S
Fe133       O971   2.079       .  S
Fe133       O144   1.937       .  S
Fe134       O137   2.026       .  S
Fe134       O141   2.088       .  S
Fe134       O145   2.060       .  S
Fe134       O150   2.099       .  S
Fe134       O144   1.949       .  S
Fe135       O153   2.097       .  S
Fe135       O140   2.042       .  S
Fe135       O147   2.065       .  S
Fe135       O136   2.095       .  S
Fe135       O144   1.939       .  S
O136        C143   1.278       .  A
O137        C151   1.265       .  A
O138        C143   1.273       .  A
O139       Fe965   2.079       .  S
O139        C142   1.271       .  A
O140        C152   1.265       .  A
O141        C154   1.275       .  A
C142        O979   1.266   1_455  A
C142        C231   1.480       .  S
C143        C178   1.483       .  S
O145        C148   1.270       .  A
O146        C148   1.274       .  A
O147        C974   1.266       .  A
C148        C291   1.481       .  S
O149        C154   1.273       .  A
O150        C152   1.274       .  A
C151        O153   1.278       .  A
C151        C218   1.472       .  S
C152        C241   1.486       .  S
C154        C188   1.484       .  S
Fe155       O171   2.066       .  S
Fe155       O168   2.078       .  S
Fe155       O160   2.052       .  S
Fe155       O993   2.084   1_455  S
Fe155       O166   1.933       .  S
Fe156       O159   2.026       .  S
Fe156       O163   2.090       .  S
Fe156       O167   2.062       .  S
Fe156       O172   2.100       .  S
Fe156       O166   1.944       .  S
Fe157       O175   2.093       .  S
Fe157       O162   2.043       .  S
Fe157       O169   2.061       .  S
Fe157       O158   2.098       .  S
Fe157       O166   1.938       .  S
O158        C165   1.277       .  A
O159        C173   1.264       .  A
O160        C165   1.272       .  A
O161       Fe987   2.084       .  S
O161        C996   1.272       .  A
O162        C174   1.266       .  A
O163        C176   1.276       .  A
C164        O169   1.266   1_655  A
C164        O993   1.272       .  A
C164       C1043   1.480       .  S
C165        C181   1.470       .  S
O167        C170   1.269       .  A
O168        C170   1.272       .  A
C170        C281   1.481       .  S
O171        C176   1.274       .  A
O172        C174   1.275       .  A
C173        O175   1.277       .  A
C173        C248   1.471       .  S
C174        C201   1.486       .  S
C176        C191   1.484       .  S
C177        C178   1.408       .  A
C177        C598   1.400       .  A
C177        H183   1.083       .  S
C178       C1011   1.407       .  A
C179       C1010   1.407       .  A
C179        C596   1.395       .  A
C179        H184   1.083       .  S
C180        C181   1.401       .  A
C180        C595   1.395   1_554  A
C180        H185   1.084       .  S
C181       C1014   1.403   1_455  A
C182        C593   1.400   1_554  A
C182       C1013   1.403       .  A
C182        H186   1.083       .  S
C187        C188   1.408       .  A
C187        C192   1.401       .  A
C187        H193   1.083       .  S
C188       C1021   1.404       .  A
C189        C190   1.400       .  A
C189       C1020   1.404       .  A
C189        H194   1.083       .  S
C190        C191   1.408       .  A
C190        H195   1.083       .  S
C191       C1024   1.404   1_455  A
C192       C1023   1.404       .  A
C192        H196   1.083       .  S
C197        C198   1.403       .  A
C197        C202   1.394       .  A
C197        H203   1.083       .  S
C198        C199   1.406       .  A
C199        C200   1.405       .  A
C199        H204   1.083       .  S
C200        C201   1.409       .  A
C200        H205   1.083       .  S
C201        C202   1.407       .  A
C202        H206   1.083       .  S
C207        C208   1.407       .  A
C207        C212   1.393       .  A
C207        H213   1.083       .  S
C208        C209   1.408       .  A
C209        C210   1.405       .  A
C209        H214   1.083       .  S
C210        C211   1.406       .  A
C210        H215   1.083       .  S
C211        C996   1.480       .  S
C211        C212   1.403       .  A
C212        H216   1.083       .  S
C217        C218   1.401       .  A
C217        C222   1.393       .  A
C217        H223   1.083       .  S
C218        C219   1.409       .  A
C219        C220   1.393       .  A
C219        H224   1.083       .  S
C220        C221   1.401       .  A
C220        H225   1.083       .  S
C221        C222   1.409       .  A
C222        H226   1.083       .  S
C227        C228   1.407       .  A
C227        C232   1.393       .  A
C227        H233   1.083       .  S
C228        C229   1.409       .  A
C229        C230   1.405       .  A
C229        H234   1.083       .  S
C230        C231   1.406       .  A
C230        H235   1.083       .  S
C231        C232   1.403       .  A
C232        H236   1.083       .  S
C237        C238   1.402       .  A
C237        C242   1.393       .  A
C237        H243   1.083       .  S
C238        C239   1.406       .  A
C239        C240   1.406       .  A
C239        H244   1.083       .  S
C240        C241   1.409       .  A
C240        H245   1.083       .  S
C241        C242   1.407       .  A
C242        H246   1.083       .  S
C247        C248   1.408       .  A
C247        C252   1.393       .  A
C247        H253   1.083       .  S
C248        C249   1.401       .  A
C249        C250   1.393       .  A
C249        H254   1.083       .  S
C250        C251   1.408       .  A
C250        H255   1.083       .  S
C251        C252   1.401       .  A
C252        H256   1.083       .  S
C257        C258   1.407       .  A
C257        C678   1.401       .  A
C257        H263   1.083       .  S
C258        C259   1.406       .  A
C259        C676   1.394       .  A
C259        H264   1.083       .  S
C260        C261   1.404       .  A
C260        C675   1.394   1_554  A
C260        H265   1.083       .  S
C261        C262   1.405       .  A
C262        C673   1.401   1_554  A
C262        H266   1.083       .  S
C267        C268   1.404       .  A
C267        C272   1.400       .  A
C267        H273   1.083       .  S
C268        C269   1.408       .  A
C269        C270   1.400       .  A
C269        H274   1.083       .  S
C270        C271   1.404       .  A
C270        H275   1.083       .  S
C271        C272   1.408       .  A
C272        H276   1.083       .  S
C277        C278   1.405       .  A
C277        C282   1.394   1_565  A
C277        H283   1.083       .  S
C278        C279   1.407       .  A
C279        C280   1.402   1_565  A
C279        H284   1.083       .  S
C280        C281   1.406       .  A
C280        H285   1.083       .  S
C281        C282   1.405       .  A
C282        H286   1.083       .  S
C287        C288   1.405       .  A
C287        C292   1.394   1_565  A
C287        H293   1.083       .  S
C288        C289   1.406       .  A
C289        C290   1.402   1_565  A
C289        H294   1.083       .  S
C290        C291   1.407       .  A
C290        H295   1.083       .  S
C291        C292   1.405       .  A
C292        H296   1.083       .  S
C297        C298   1.401       .  A
C297        C718   1.396       .  A
C297        H303   1.084       .  S
C298       C1131   1.402       .  A
C299       C1130   1.402       .  A
C299        C716   1.400       .  A
C299        H304   1.083       .  S
C300        C301   1.408       .  A
C300        C715   1.400   1_554  A
C300        H305   1.083       .  S
C301       C1134   1.407   1_455  A
C302        C713   1.396   1_554  A
C302       C1133   1.407       .  A
C302        H306   1.083       .  S
C307        C312   1.401       .  A
C307       C1140   1.404       .  A
C307        H313   1.083       .  S
C308        C309   1.408       .  A
C308       C1139   1.404       .  A
C309        C310   1.400       .  A
C309        H314   1.083       .  S
C310       C1143   1.404       .  A
C310        H315   1.083       .  S
C311        C312   1.408       .  A
C311       C1142   1.404   1_455  A
C312        H316   1.083       .  S
C317        C318   1.405       .  A
C317        C322   1.394       .  A
C317        H323   1.083       .  S
C318        C319   1.407       .  A
C319        C320   1.402       .  A
C319        H324   1.083       .  S
C320        C321   1.407       .  A
C320        H325   1.083       .  S
C321        C322   1.405       .  A
C322        H326   1.083       .  S
C327        C328   1.402       .  A
C327        C332   1.393       .  A
C327        H333   1.083       .  S
C328        C329   1.406       .  A
C329        C330   1.405       .  A
C329        H334   1.083       .  S
C330        C331   1.409       .  A
C330        H335   1.083       .  S
C331        C332   1.407       .  A
C332        H336   1.083       .  S
C337        C338   1.407       .  A
C337        C342   1.393       .  A
C337        H343   1.083       .  S
C338        C339   1.409       .  A
C339        C340   1.405       .  A
C339        H344   1.083       .  S
C340        C341   1.406       .  A
C340        H345   1.083       .  S
C341        C909   1.480       .  S
C341        C342   1.403       .  A
C342        H346   1.083       .  S
C347        C348   1.409       .  A
C347        C352   1.393       .  A
C347        H353   1.083       .  S
C348        C349   1.401       .  A
C349        C350   1.393       .  A
C349        H354   1.083       .  S
C350        C351   1.409       .  A
C350        H355   1.083       .  S
C351        C352   1.401       .  A
C352        H356   1.083       .  S
C357        C358   1.407       .  A
C357        C362   1.402       .  A
C357        H363   1.083       .  S
C358        C359   1.405       .  A
C359        C360   1.394       .  A
C359        H364   1.083       .  S
C360        C361   1.405       .  A
C360        H365   1.083       .  S
C361        C362   1.407       .  A
C362        H366   1.083       .  S
C367        C368   1.406       .  A
C367        C372   1.405       .  A
C367        H373   1.083       .  S
C368        C369   1.403       .  A
C369        C370   1.394       .  A
C369        H374   1.083       .  S
C370        C371   1.407       .  A
C370        H375   1.083       .  S
C371        C372   1.408       .  A
C372        H376   1.083       .  S
C377        C378   1.403       .  A
C377        C382   1.393       .  A
C377        H383   1.083       .  S
C378        C379   1.406       .  A
C379        C380   1.405       .  A
C379        H384   1.083       .  S
C380        C381   1.409       .  A
C380        H385   1.083       .  S
C381        C382   1.407       .  A
C382        H386   1.083       .  S
C387        C388   1.401       .  A
C387        C392   1.394       .  A
C387        H393   1.083       .  S
C388        C389   1.409       .  A
C389        C390   1.393       .  A
C389        H394   1.083       .  S
C390        C391   1.401       .  A
C390        H395   1.083       .  S
C391        C392   1.409       .  A
C392        H396   1.083       .  S
C397        C398   1.407       .  A
C397        C818   1.401       .  A
C397        H403   1.083       .  S
C398        C399   1.405       .  A
C399        C816   1.394       .  A
C399        H404   1.083       .  S
C400        C401   1.404       .  A
C400        C815   1.394   1_554  A
C400        H405   1.083       .  S
C401        C402   1.406       .  A
C402        C813   1.401   1_554  A
C402        H406   1.083       .  S
C407        C408   1.404       .  A
C407        C412   1.400       .  A
C407        H413   1.083       .  S
C408        C409   1.408       .  A
C409        C410   1.400       .  A
C409        H414   1.083       .  S
C410        C411   1.404       .  A
C410        H415   1.083       .  S
C411        C412   1.408       .  A
C412        H416   1.083       .  S
Fe417       O433   2.063       .  S
Fe417       O423   2.082       .  S
Fe417       O430   2.080       .  S
Fe417       O422   2.049       .  S
Fe417       O428   1.935       .  S
Fe418       O421   2.025       .  S
Fe418       O425   2.089       .  S
Fe418       O429   2.060       .  S
Fe418       O434   2.099       .  S
Fe418       O428   1.946       .  S
Fe419       O437   2.097       .  S
Fe419       O424   2.042       .  S
Fe419       O431   2.063       .  S
Fe419       O420   2.098       .  S
Fe419       O428   1.939       .  S
O420        C427   1.279       .  A
O421        C435   1.264       .  A
O422        C427   1.272       .  A
O423        C426   1.271       .  A
O424        C436   1.265       .  A
O425        C438   1.275       .  A
C426        O431   1.266       .  A
C426        C794   1.480       .  S
C427        C814   1.481       .  S
O429        C432   1.269       .  A
O430        C432   1.273       .  A
C432        C774   1.481       .  S
O433        C438   1.273       .  A
O434        C436   1.275       .  A
C435        O437   1.278       .  A
C435        C804   1.473       .  S
C436        C787   1.486       .  S
C438        C824   1.483       .  S
Fe439       O455   2.063       .  S
Fe439       O445   2.083       .  S
Fe439       O452   2.079       .  S
Fe439       O444   2.049       .  S
Fe439       O450   1.935       .  S
Fe440       O443   2.026       .  S
Fe440       O447   2.089       .  S
Fe440       O451   2.061       .  S
Fe440       O456   2.099       .  S
Fe440       O450   1.946       .  S
Fe441       O459   2.095       .  S
Fe441       O446   2.043       .  S
Fe441       O453   2.063       .  S
Fe441       O442   2.098       .  S
Fe441       O450   1.939       .  S
O442        C449   1.278       .  A
O443        C457   1.265       .  A
O444        C449   1.272       .  A
O445        C448   1.271       .  A
O446        C458   1.266       .  A
O447        C460   1.276       .  A
C448        O453   1.266       .  A
C448        C744   1.480       .  S
C449        C817   1.478       .  S
O451        C454   1.269       .  A
O452        C454   1.273       .  A
C454        C734   1.482       .  S
O455        C460   1.273       .  A
O456        C458   1.275       .  A
C457        O459   1.277       .  A
C457        C764   1.472       .  S
C458        C754   1.486       .  S
C460        C827   1.483       .  S
Fe461       O477   2.077       .  S
Fe461       O467   2.053       .  S
Fe461       O474   2.066       .  S
Fe461      O1298   2.084       .  S
Fe461       O472   1.934       .  S
Fe462       O465   2.099       .  S
Fe462       O469   2.062       .  S
Fe462       O473   2.090       .  S
Fe462       O478   2.027       .  S
Fe462       O472   1.945       .  S
Fe463       O481   2.044       .  S
Fe463       O468   2.093       .  S
Fe463       O475   2.098       .  S
Fe463       O464   2.061       .  S
Fe463       O472   1.938       .  S
O464       C1303   1.266       .  A
O465        C479   1.275       .  A
O466      Fe1293   2.084       .  S
O466        C471   1.272       .  A
O467        C470   1.272       .  A
O468        C480   1.277       .  A
O469        C482   1.269       .  A
C470        O475   1.277       .  A
C470        C714   1.469       .  S
C471       O1296   1.266       .  A
C471        C784   1.480       .  S
O473        C476   1.276       .  A
O474        C476   1.274       .  A
C476        C724   1.484       .  S
O477        C482   1.272       .  A
O478        C480   1.264       .  A
C479        O481   1.266       .  A
C479        C797   1.486       .  S
C480        C767   1.472       .  S
C482        C704   1.481       .  S
Fe483       O499   2.081       .  S
Fe483       O489   2.052       .  S
Fe483       O496   2.065       .  S
Fe483      O1320   2.079   1_455  S
Fe483       O494   1.938       .  S
Fe484       O487   2.100       .  S
Fe484       O491   2.060       .  S
Fe484       O495   2.088       .  S
Fe484       O500   2.026       .  S
Fe484       O494   1.950       .  S
Fe485       O503   2.042       .  S
Fe485       O490   2.097       .  S
Fe485       O497   2.094       .  S
Fe485       O486   2.065       .  S
Fe485       O494   1.939       .  S
O486        C493   1.266   1_455  A
O487        C501   1.274       .  A
O488      Fe1315   2.079       .  S
O488       C1325   1.271       .  A
O489        C492   1.273       .  A
O490        C502   1.278       .  A
O491        C504   1.270       .  A
C492        O497   1.278       .  A
C492        C717   1.482       .  S
C493       O1320   1.271       .  A
C493       C1589   1.480       .  S
O495        C498   1.275       .  A
O496        C498   1.273       .  A
C498        C727   1.484       .  S
O499        C504   1.274       .  A
O500        C502   1.265       .  A
C501        O503   1.265       .  A
C501        C747   1.486       .  S
C502        C807   1.472       .  S
C504        C694   1.482       .  S
Fe505       O521   2.079       .  S
Fe505       O511   2.049       .  S
Fe505       O518   2.063       .  S
Fe505       O510   2.081       .  S
Fe505       O516   1.936       .  S
Fe506       O509   2.099       .  S
Fe506       O513   2.060       .  S
Fe506       O517   2.089       .  S
Fe506       O522   2.026       .  S
Fe506       O516   1.948       .  S
Fe507       O525   2.043       .  S
Fe507       O512   2.095       .  S
Fe507       O519   2.096       .  S
Fe507       O508   2.064       .  S
Fe507       O516   1.939       .  S
O508        C515   1.266       .  A
O509        C523   1.274       .  A
O510        C515   1.271       .  A
O511        C514   1.272       .  A
O512        C524   1.278       .  A
O513        C526   1.270       .  A
C514        O519   1.278       .  A
C514        C674   1.481       .  S
C515        C654   1.480       .  S
O517        C520   1.275       .  A
O518        C520   1.273       .  A
C520        C684   1.483       .  S
O521        C526   1.273       .  A
O522        C524   1.265       .  A
C523        O525   1.266       .  A
C523        C644   1.486       .  S
C524        C667   1.471       .  S
C526        C777   1.481       .  S
Fe527       O543   2.079       .  S
Fe527       O533   2.049       .  S
Fe527       O540   2.063       .  S
Fe527       O532   2.083       .  S
Fe527       O538   1.934       .  S
Fe528       O531   2.100       .  S
Fe528       O535   2.061       .  S
Fe528       O539   2.089       .  S
Fe528       O544   2.026       .  S
Fe528       O538   1.945       .  S
Fe529       O547   2.042       .  S
Fe529       O534   2.096       .  S
Fe529       O541   2.098       .  S
Fe529       O530   2.063       .  S
Fe529       O538   1.938       .  S
O530        C537   1.266       .  A
O531        C545   1.275       .  A
O532        C537   1.272       .  A
O533        C536   1.272       .  A
O534        C546   1.278       .  A
O535        C548   1.269       .  A
C536        O541   1.278       .  A
C536        C677   1.477       .  S
C537        C614   1.481       .  S
O539        C542   1.276       .  A
O540        C542   1.273       .  A
C542        C687   1.483       .  S
O543        C548   1.273       .  A
O544        C546   1.264       .  A
C545        O547   1.266       .  A
C545        C624   1.485       .  S
C546        C637   1.472       .  S
C548        C737   1.481       .  S
Fe549       O565   2.065       .  S
Fe549      O1387   2.079       .  S
Fe549       O562   2.081       .  S
Fe549       O554   2.051       .  S
Fe549       O560   1.937       .  S
Fe550       O553   2.026       .  S
Fe550       O557   2.088       .  S
Fe550       O561   2.060       .  S
Fe550       O566   2.099       .  S
Fe550       O560   1.949       .  S
Fe551       O569   2.097       .  S
Fe551       O556   2.042       .  S
Fe551       O563   2.065       .  S
Fe551       O552   2.095       .  S
Fe551       O560   1.939       .  S
O552        C559   1.278       .  A
O553        C567   1.265       .  A
O554        C559   1.273       .  A
O555      Fe1381   2.079       .  S
O555        C558   1.271       .  A
O556        C568   1.265       .  A
O557        C570   1.275       .  A
C558       O1395   1.266   1_455  A
C558        C647   1.480       .  S
C559        C594   1.483       .  S
O561        C564   1.270       .  A
O562        C564   1.274       .  A
O563       C1390   1.266       .  A
C564        C707   1.481       .  S
O565        C570   1.273       .  A
O566        C568   1.274       .  A
C567        O569   1.278       .  A
C567        C634   1.472       .  S
C568        C657   1.486       .  S
C570        C604   1.484       .  S
Fe571       O587   2.066       .  S
Fe571      O1409   2.084   1_455  S
Fe571       O584   2.078       .  S
Fe571       O576   2.052       .  S
Fe571       O582   1.933       .  S
Fe572       O575   2.026       .  S
Fe572       O579   2.090       .  S
Fe572       O583   2.062       .  S
Fe572       O588   2.100       .  S
Fe572       O582   1.944       .  S
Fe573       O591   2.093       .  S
Fe573       O578   2.043       .  S
Fe573       O585   2.061       .  S
Fe573       O574   2.098       .  S
Fe573       O582   1.938       .  S
O574        C581   1.277       .  A
O575        C589   1.264       .  A
O576        C581   1.272       .  A
O577      Fe1403   2.084       .  S
O577       C1412   1.272       .  A
O578        C590   1.266       .  A
O579        C592   1.276       .  A
C580       O1409   1.272       .  A
C580        O585   1.266   1_655  A
C580       C1459   1.480       .  S
C581        C597   1.470       .  S
O583        C586   1.269       .  A
O584        C586   1.272       .  A
C586        C697   1.481       .  S
O587        C592   1.274       .  A
O588        C590   1.275       .  A
C589        O591   1.277       .  A
C589        C664   1.471       .  S
C590        C617   1.486       .  S
C592        C607   1.484       .  S
C593        C594   1.408       .  A
C593        H599   1.083       .  S
C594       C1427   1.407       .  A
C595       C1426   1.407       .  A
C595        H600   1.083       .  S
C596        C597   1.401       .  A
C596        H601   1.084       .  S
C597       C1430   1.403   1_455  A
C598       C1429   1.403       .  A
C598        H602   1.083       .  S
C603        C604   1.408       .  A
C603        C608   1.401       .  A
C603        H609   1.083       .  S
C604       C1437   1.404       .  A
C605       C1436   1.404       .  A
C605        C606   1.400       .  A
C605        H610   1.083       .  S
C606        C607   1.408       .  A
C606        H611   1.083       .  S
C607       C1440   1.404   1_455  A
C608       C1439   1.404       .  A
C608        H612   1.083       .  S
C613        C614   1.403       .  A
C613        C618   1.394       .  A
C613        H619   1.083       .  S
C614        C615   1.406       .  A
C615        C616   1.405       .  A
C615        H620   1.083       .  S
C616        C617   1.409       .  A
C616        H621   1.083       .  S
C617        C618   1.407       .  A
C618        H622   1.083       .  S
C623        C624   1.407       .  A
C623        C628   1.393       .  A
C623        H629   1.083       .  S
C624        C625   1.408       .  A
C625        C626   1.405       .  A
C625        H630   1.083       .  S
C626        C627   1.406       .  A
C626        H631   1.083       .  S
C627       C1412   1.480       .  S
C627        C628   1.403       .  A
C628        H632   1.083       .  S
C633        C634   1.401       .  A
C633        C638   1.393       .  A
C633        H639   1.083       .  S
C634        C635   1.409       .  A
C635        C636   1.393       .  A
C635        H640   1.083       .  S
C636        C637   1.401       .  A
C636        H641   1.083       .  S
C637        C638   1.409       .  A
C638        H642   1.083       .  S
C643        C644   1.407       .  A
C643        C648   1.393       .  A
C643        H649   1.083       .  S
C644        C645   1.409       .  A
C645        C646   1.405       .  A
C645        H650   1.083       .  S
C646        C647   1.406       .  A
C646        H651   1.083       .  S
C647        C648   1.403       .  A
C648        H652   1.083       .  S
C653        C654   1.402       .  A
C653        C658   1.393       .  A
C653        H659   1.083       .  S
C654        C655   1.406       .  A
C655        C656   1.406       .  A
C655        H660   1.083       .  S
C656        C657   1.409       .  A
C656        H661   1.083       .  S
C657        C658   1.407       .  A
C658        H662   1.083       .  S
C663        C664   1.408       .  A
C663        C668   1.393       .  A
C663        H669   1.083       .  S
C664        C665   1.401       .  A
C665        C666   1.393       .  A
C665        H670   1.083       .  S
C666        C667   1.408       .  A
C666        H671   1.083       .  S
C667        C668   1.401       .  A
C668        H672   1.083       .  S
C673        C674   1.407       .  A
C673        H679   1.083       .  S
C674        C675   1.406       .  A
C675        H680   1.083       .  S
C676        C677   1.404       .  A
C676        H681   1.083       .  S
C677        C678   1.405       .  A
C678        H682   1.083       .  S
C683        C684   1.404       .  A
C683        C688   1.400       .  A
C683        H689   1.083       .  S
C684        C685   1.408       .  A
C685        C686   1.400       .  A
C685        H690   1.083       .  S
C686        C687   1.404       .  A
C686        H691   1.083       .  S
C687        C688   1.408       .  A
C688        H692   1.083       .  S
C693        C694   1.405       .  A
C693        C698   1.394   1_565  A
C693        H699   1.083       .  S
C694        C695   1.407       .  A
C695        C696   1.402   1_565  A
C695        H700   1.083       .  S
C696        C697   1.406       .  A
C696        H701   1.083       .  S
C697        C698   1.405       .  A
C698        H702   1.083       .  S
C703        C704   1.405       .  A
C703        C708   1.394   1_565  A
C703        H709   1.083       .  S
C704        C705   1.406       .  A
C705        C706   1.402   1_565  A
C705        H710   1.083       .  S
C706        C707   1.407       .  A
C706        H711   1.083       .  S
C707        C708   1.405       .  A
C708        H712   1.083       .  S
C713        C714   1.401       .  A
C713        H719   1.084       .  S
C714       C1547   1.402       .  A
C715       C1546   1.402       .  A
C715        H720   1.083       .  S
C716        C717   1.408       .  A
C716        H721   1.083       .  S
C717       C1550   1.407   1_455  A
C718       C1549   1.407       .  A
C718        H722   1.083       .  S
C723       C1556   1.404       .  A
C723        C728   1.401       .  A
C723        H729   1.083       .  S
C724       C1555   1.404       .  A
C724        C725   1.408       .  A
C725        C726   1.400       .  A
C725        H730   1.083       .  S
C726       C1559   1.404       .  A
C726        H731   1.083       .  S
C727       C1558   1.404   1_455  A
C727        C728   1.408       .  A
C728        H732   1.083       .  S
C733        C734   1.405       .  A
C733        C738   1.394       .  A
C733        H739   1.083       .  S
C734        C735   1.407       .  A
C735        C736   1.402       .  A
C735        H740   1.083       .  S
C736        C737   1.407       .  A
C736        H741   1.083       .  S
C737        C738   1.405       .  A
C738        H742   1.083       .  S
C743        C744   1.402       .  A
C743        C748   1.393       .  A
C743        H749   1.083       .  S
C744        C745   1.406       .  A
C745        C746   1.405       .  A
C745        H750   1.083       .  S
C746        C747   1.409       .  A
C746        H751   1.083       .  S
C747        C748   1.407       .  A
C748        H752   1.083       .  S
C753        C754   1.407       .  A
C753        C758   1.393       .  A
C753        H759   1.083       .  S
C754        C755   1.409       .  A
C755        C756   1.405       .  A
C755        H760   1.083       .  S
C756        C757   1.406       .  A
C756        H761   1.083       .  S
C757       C1325   1.480       .  S
C757        C758   1.403       .  A
C758        H762   1.083       .  S
C763        C764   1.409       .  A
C763        C768   1.393       .  A
C763        H769   1.083       .  S
C764        C765   1.401       .  A
C765        C766   1.393       .  A
C765        H770   1.083       .  S
C766        C767   1.409       .  A
C766        H771   1.083       .  S
C767        C768   1.401       .  A
C768        H772   1.083       .  S
C773        C774   1.407       .  A
C773        C778   1.402       .  A
C773        H779   1.083       .  S
C774        C775   1.405       .  A
C775        C776   1.394       .  A
C775        H780   1.083       .  S
C776        C777   1.405       .  A
C776        H781   1.083       .  S
C777        C778   1.407       .  A
C778        H782   1.083       .  S
C783        C784   1.406       .  A
C783        C788   1.405       .  A
C783        H789   1.083       .  S
C784        C785   1.403       .  A
C785        C786   1.394       .  A
C785        H790   1.083       .  S
C786        C787   1.407       .  A
C786        H791   1.083       .  S
C787        C788   1.408       .  A
C788        H792   1.083       .  S
C793        C794   1.403       .  A
C793        C798   1.393       .  A
C793        H799   1.083       .  S
C794        C795   1.406       .  A
C795        C796   1.405       .  A
C795        H800   1.083       .  S
C796        C797   1.409       .  A
C796        H801   1.083       .  S
C797        C798   1.407       .  A
C798        H802   1.083       .  S
C803        C804   1.401       .  A
C803        C808   1.394       .  A
C803        H809   1.083       .  S
C804        C805   1.409       .  A
C805        C806   1.393       .  A
C805        H810   1.083       .  S
C806        C807   1.401       .  A
C806        H811   1.083       .  S
C807        C808   1.409       .  A
C808        H812   1.083       .  S
C813        C814   1.407       .  A
C813        H819   1.083       .  S
C814        C815   1.405       .  A
C815        H820   1.083       .  S
C816        C817   1.404       .  A
C816        H821   1.083       .  S
C817        C818   1.406       .  A
C818        H822   1.083       .  S
C823        C824   1.404       .  A
C823        C828   1.400       .  A
C823        H829   1.083       .  S
C824        C825   1.408       .  A
C825        C826   1.400       .  A
C825        H830   1.083       .  S
C826        C827   1.404       .  A
C826        H831   1.083       .  S
C827        C828   1.408       .  A
C828        H832   1.083       .  S
Fe833       O849   2.063       .  S
Fe833       O839   2.082       .  S
Fe833       O846   2.080       .  S
Fe833       O838   2.049       .  S
Fe833       O844   1.935       .  S
Fe834       O837   2.025       .  S
Fe834       O841   2.089       .  S
Fe834       O845   2.060       .  S
Fe834       O850   2.099       .  S
Fe834       O844   1.946       .  S
Fe835       O853   2.097       .  S
Fe835       O840   2.042       .  S
Fe835       O847   2.063       .  S
Fe835       O836   2.098       .  S
Fe835       O844   1.939       .  S
O836        C843   1.279       .  A
O837        C851   1.264       .  A
O838        C843   1.272       .  A
O839        C842   1.271       .  A
O840        C852   1.265       .  A
O841        C854   1.275       .  A
C842        O847   1.266       .  A
C842       C1210   1.480       .  S
C843       C1230   1.481       .  S
O845        C848   1.269       .  A
O846        C848   1.273       .  A
C848       C1190   1.481       .  S
O849        C854   1.273       .  A
O850        C852   1.275       .  A
C851        O853   1.278       .  A
C851       C1220   1.473       .  S
C852       C1203   1.486       .  S
C854       C1240   1.483       .  S
Fe855       O871   2.063       .  S
Fe855       O861   2.083       .  S
Fe855       O868   2.079       .  S
Fe855       O860   2.049       .  S
Fe855       O866   1.935       .  S
Fe856       O859   2.026       .  S
Fe856       O863   2.089       .  S
Fe856       O867   2.061       .  S
Fe856       O872   2.099       .  S
Fe856       O866   1.946       .  S
Fe857       O875   2.095       .  S
Fe857       O862   2.043       .  S
Fe857       O869   2.063       .  S
Fe857       O858   2.098       .  S
Fe857       O866   1.939       .  S
O858        C865   1.278       .  A
O859        C873   1.265       .  A
O860        C865   1.272       .  A
O861        C864   1.271       .  A
O862        C874   1.266       .  A
O863        C876   1.276       .  A
C864        O869   1.266       .  A
C864       C1160   1.480       .  S
C865       C1233   1.478       .  S
O867        C870   1.269       .  A
O868        C870   1.273       .  A
C870       C1150   1.482       .  S
O871        C876   1.273       .  A
O872        C874   1.275       .  A
C873        O875   1.277       .  A
C873       C1180   1.472       .  S
C874       C1170   1.486       .  S
C876       C1243   1.483       .  S
Fe877       O893   2.077   1_455  S
Fe877       O883   2.053       .  S
Fe877       O890   2.066       .  S
Fe877       O888   1.934   1_455  S
Fe878       O881   2.099       .  S
Fe878       O885   2.062       .  S
Fe878       O889   2.090       .  S
Fe878       O894   2.027       .  S
Fe878       O888   1.945       .  S
Fe879       O897   2.044       .  S
Fe879       O884   2.093       .  S
Fe879       O891   2.098       .  S
Fe879       O880   2.061   1_655  S
Fe879       O888   1.938       .  S
O881        C895   1.275       .  A
O882        C887   1.272       .  A
O883        C886   1.272   1_455  A
O884        C896   1.277       .  A
O885        C898   1.269       .  A
C886        O891   1.277       .  A
C886       C1130   1.469   1_655  S
C887       C1200   1.480       .  S
O889        C892   1.276       .  A
O890        C892   1.274   1_455  A
C892       C1140   1.484   1_655  S
O893        C898   1.272       .  A
O894        C896   1.264       .  A
C895        O897   1.266       .  A
C895       C1213   1.486       .  S
C896       C1183   1.472       .  S
C898       C1120   1.481       .  S
Fe899       O915   2.081       .  S
Fe899       O905   2.052       .  S
Fe899       O912   2.065       .  S
Fe899       O910   1.938       .  S
Fe900       O903   2.100       .  S
Fe900       O907   2.060       .  S
Fe900       O911   2.088       .  S
Fe900       O916   2.026       .  S
Fe900       O910   1.950       .  S
Fe901       O919   2.042       .  S
Fe901       O906   2.097       .  S
Fe901       O913   2.094       .  S
Fe901       O902   2.065       .  S
Fe901       O910   1.939       .  S
O902        C909   1.266       .  A
O903        C917   1.274       .  A
O905        C908   1.273       .  A
O906        C918   1.278       .  A
O907        C920   1.270       .  A
C908        O913   1.278       .  A
C908       C1133   1.482       .  S
O911        C914   1.275       .  A
O912        C914   1.273       .  A
C914       C1143   1.484       .  S
O915        C920   1.274       .  A
O916        C918   1.265       .  A
C917        O919   1.265       .  A
C917       C1163   1.486       .  S
C918       C1223   1.472       .  S
C920       C1110   1.482       .  S
Fe921       O937   2.079       .  S
Fe921       O927   2.049       .  S
Fe921       O934   2.063       .  S
Fe921       O926   2.081       .  S
Fe921       O932   1.936       .  S
Fe922       O925   2.099       .  S
Fe922       O929   2.060       .  S
Fe922       O933   2.089       .  S
Fe922       O938   2.026       .  S
Fe922       O932   1.948       .  S
Fe923       O941   2.043       .  S
Fe923       O928   2.095       .  S
Fe923       O935   2.096       .  S
Fe923       O924   2.064       .  S
Fe923       O932   1.939       .  S
O924        C931   1.266       .  A
O925        C939   1.274       .  A
O926        C931   1.271       .  A
O927        C930   1.272       .  A
O928        C940   1.278       .  A
O929        C942   1.270       .  A
C930        O935   1.278       .  A
C930       C1090   1.481       .  S
C931       C1070   1.480       .  S
O933        C936   1.275       .  A
O934        C936   1.273       .  A
C936       C1100   1.483       .  S
O937        C942   1.273       .  A
O938        C940   1.265       .  A
C939        O941   1.266       .  A
C939       C1060   1.486       .  S
C940       C1083   1.471       .  S
C942       C1193   1.481       .  S
Fe943       O959   2.079       .  S
Fe943       O949   2.049       .  S
Fe943       O956   2.063       .  S
Fe943       O948   2.083       .  S
Fe943       O954   1.934       .  S
Fe944       O947   2.100       .  S
Fe944       O951   2.061       .  S
Fe944       O955   2.089       .  S
Fe944       O960   2.026       .  S
Fe944       O954   1.945       .  S
Fe945       O963   2.042       .  S
Fe945       O950   2.096       .  S
Fe945       O957   2.098       .  S
Fe945       O946   2.063       .  S
Fe945       O954   1.938       .  S
O946        C953   1.266       .  A
O947        C961   1.275       .  A
O948        C953   1.272       .  A
O949        C952   1.272       .  A
O950        C962   1.278       .  A
O951        C964   1.269       .  A
C952        O957   1.278       .  A
C952       C1093   1.477       .  S
C953       C1030   1.481       .  S
O955        C958   1.276       .  A
O956        C958   1.273       .  A
C958       C1103   1.483       .  S
O959        C964   1.273       .  A
O960        C962   1.264       .  A
C961        O963   1.266       .  A
C961       C1040   1.485       .  S
C962       C1053   1.472       .  S
C964       C1153   1.481       .  S
Fe965       O981   2.065       .  S
Fe965       O978   2.081   1_455  S
Fe965       O970   2.051       .  S
Fe965       O976   1.937   1_455  S
Fe966       O969   2.026       .  S
Fe966       O973   2.088       .  S
Fe966       O977   2.060       .  S
Fe966       O982   2.099       .  S
Fe966       O976   1.949       .  S
Fe967       O985   2.097       .  S
Fe967       O972   2.042       .  S
Fe967       O979   2.065       .  S
Fe967       O968   2.095       .  S
Fe967       O976   1.939       .  S
O968        C975   1.278       .  A
O969        C983   1.265       .  A
O970        C975   1.273   1_455  A
O971        C974   1.271       .  A
O972        C984   1.265       .  A
O973        C986   1.275       .  A
C974       C1063   1.480       .  S
C975       C1010   1.483   1_655  S
O977        C980   1.270       .  A
O978        C980   1.274       .  A
C980       C1123   1.481       .  S
O981        C986   1.273   1_455  A
O982        C984   1.274       .  A
C983        O985   1.278       .  A
C983       C1050   1.472       .  S
C984       C1073   1.486       .  S
C986       C1020   1.484   1_655  S
Fe987      O1003   2.066       .  S
Fe987      O1000   2.078       .  S
Fe987       O992   2.052       .  S
Fe987       O998   1.933       .  S
Fe988       O991   2.026       .  S
Fe988       O995   2.090       .  S
Fe988       O999   2.062       .  S
Fe988      O1004   2.100       .  S
Fe988       O998   1.944       .  S
Fe989      O1007   2.093       .  S
Fe989       O994   2.043       .  S
Fe989      O1001   2.061       .  S
Fe989       O990   2.098       .  S
Fe989       O998   1.938       .  S
O990        C997   1.277       .  A
O991       C1005   1.264       .  A
O992        C997   1.272       .  A
O994       C1006   1.266       .  A
O995       C1008   1.276       .  A
C996       O1001   1.266       .  A
C997       C1013   1.470       .  S
O999       C1002   1.269       .  A
O1000      C1002   1.272       .  A
C1002      C1113   1.481       .  S
O1003      C1008   1.274       .  A
O1004      C1006   1.275       .  A
C1005      O1007   1.277       .  A
C1005      C1080   1.471       .  S
C1006      C1033   1.486       .  S
C1008      C1023   1.484       .  S
C1009      C1010   1.408   1_655  A
C1009      C1430   1.400       .  A
C1009      H1015   1.083       .  S
C1011      C1428   1.395       .  A
C1011      H1016   1.083       .  S
C1012      C1427   1.395   1_554  A
C1012      C1013   1.401       .  A
C1012      H1017   1.084       .  S
C1014      C1425   1.400   1_554  A
C1014      H1018   1.083       .  S
C1019      C1020   1.408   1_655  A
C1019      C1024   1.401       .  A
C1019      H1025   1.083       .  S
C1021      C1022   1.400       .  A
C1021      H1026   1.083       .  S
C1022      C1023   1.408       .  A
C1022      H1027   1.083       .  S
C1024      H1028   1.083       .  S
C1029      C1030   1.403       .  A
C1029      C1034   1.394       .  A
C1029      H1035   1.083       .  S
C1030      C1031   1.406       .  A
C1031      C1032   1.405       .  A
C1031      H1036   1.083       .  S
C1032      C1033   1.409       .  A
C1032      H1037   1.083       .  S
C1033      C1034   1.407       .  A
C1034      H1038   1.083       .  S
C1039      C1040   1.407       .  A
C1039      C1044   1.393       .  A
C1039      H1045   1.083       .  S
C1040      C1041   1.408       .  A
C1041      C1042   1.405       .  A
C1041      H1046   1.083       .  S
C1042      C1043   1.406       .  A
C1042      H1047   1.083       .  S
C1043      C1044   1.403       .  A
C1044      H1048   1.083       .  S
C1049      C1050   1.401       .  A
C1049      C1054   1.393       .  A
C1049      H1055   1.083       .  S
C1050      C1051   1.409       .  A
C1051      C1052   1.393       .  A
C1051      H1056   1.083       .  S
C1052      C1053   1.401       .  A
C1052      H1057   1.083       .  S
C1053      C1054   1.409       .  A
C1054      H1058   1.083       .  S
C1059      C1060   1.407       .  A
C1059      C1064   1.393       .  A
C1059      H1065   1.083       .  S
C1060      C1061   1.409       .  A
C1061      C1062   1.405       .  A
C1061      H1066   1.083       .  S
C1062      C1063   1.406       .  A
C1062      H1067   1.083       .  S
C1063      C1064   1.403       .  A
C1064      H1068   1.083       .  S
C1069      C1070   1.402       .  A
C1069      C1074   1.393       .  A
C1069      H1075   1.083       .  S
C1070      C1071   1.406       .  A
C1071      C1072   1.406       .  A
C1071      H1076   1.083       .  S
C1072      C1073   1.409       .  A
C1072      H1077   1.083       .  S
C1073      C1074   1.407       .  A
C1074      H1078   1.083       .  S
C1079      C1080   1.408       .  A
C1079      C1084   1.393       .  A
C1079      H1085   1.083       .  S
C1080      C1081   1.401       .  A
C1081      C1082   1.393       .  A
C1081      H1086   1.083       .  S
C1082      C1083   1.408       .  A
C1082      H1087   1.083       .  S
C1083      C1084   1.401       .  A
C1084      H1088   1.083       .  S
C1089      C1090   1.407       .  A
C1089      C1510   1.401       .  A
C1089      H1095   1.083       .  S
C1090      C1091   1.406       .  A
C1091      C1508   1.394       .  A
C1091      H1096   1.083       .  S
C1092      C1507   1.394   1_554  A
C1092      C1093   1.404       .  A
C1092      H1097   1.083       .  S
C1093      C1094   1.405       .  A
C1094      C1505   1.401   1_554  A
C1094      H1098   1.083       .  S
C1099      C1100   1.404       .  A
C1099      C1104   1.400       .  A
C1099      H1105   1.083       .  S
C1100      C1101   1.408       .  A
C1101      C1102   1.400       .  A
C1101      H1106   1.083       .  S
C1102      C1103   1.404       .  A
C1102      H1107   1.083       .  S
C1103      C1104   1.408       .  A
C1104      H1108   1.083       .  S
C1109      C1110   1.405       .  A
C1109      C1114   1.394   1_565  A
C1109      H1115   1.083       .  S
C1110      C1111   1.407       .  A
C1111      C1112   1.402   1_565  A
C1111      H1116   1.083       .  S
C1112      C1113   1.406       .  A
C1112      H1117   1.083       .  S
C1113      C1114   1.405       .  A
C1114      H1118   1.083       .  S
C1119      C1120   1.405       .  A
C1119      C1124   1.394   1_565  A
C1119      H1125   1.083   1_655  S
C1120      C1121   1.406       .  A
C1121      C1122   1.402   1_565  A
C1121      H1126   1.083       .  S
C1122      C1123   1.407       .  A
C1122      H1127   1.083       .  S
C1123      C1124   1.405       .  A
C1124      H1128   1.083   1_655  S
C1129      C1130   1.401   1_655  A
C1129      C1550   1.396       .  A
C1129      H1135   1.084       .  S
C1131      C1548   1.400       .  A
C1131      H1136   1.083       .  S
C1132      C1547   1.400   1_554  A
C1132      C1133   1.408       .  A
C1132      H1137   1.083       .  S
C1134      C1545   1.396   1_554  A
C1134      H1138   1.083       .  S
C1139      C1144   1.401       .  A
C1139      H1145   1.083       .  S
C1140      C1141   1.408   1_455  A
C1141      C1142   1.400       .  A
C1141      H1146   1.083       .  S
C1142      H1147   1.083       .  S
C1143      C1144   1.408       .  A
C1144      H1148   1.083       .  S
C1149      C1150   1.405       .  A
C1149      C1154   1.394       .  A
C1149      H1155   1.083       .  S
C1150      C1151   1.407       .  A
C1151      C1152   1.402       .  A
C1151      H1156   1.083       .  S
C1152      C1153   1.407       .  A
C1152      H1157   1.083       .  S
C1153      C1154   1.405       .  A
C1154      H1158   1.083       .  S
C1159      C1160   1.402       .  A
C1159      C1164   1.393       .  A
C1159      H1165   1.083       .  S
C1160      C1161   1.406       .  A
C1161      C1162   1.405       .  A
C1161      H1166   1.083       .  S
C1162      C1163   1.409       .  A
C1162      H1167   1.083       .  S
C1163      C1164   1.407       .  A
C1164      H1168   1.083       .  S
C1169      C1170   1.407       .  A
C1169      C1174   1.393       .  A
C1169      H1175   1.083       .  S
C1170      C1171   1.409       .  A
C1171      C1172   1.405       .  A
C1171      H1176   1.083       .  S
C1172      C1173   1.406       .  A
C1172      H1177   1.083       .  S
C1173      C1174   1.403       .  A
C1174      H1178   1.083       .  S
C1179      C1180   1.409       .  A
C1179      C1184   1.393       .  A
C1179      H1185   1.083       .  S
C1180      C1181   1.401       .  A
C1181      C1182   1.393       .  A
C1181      H1186   1.083       .  S
C1182      C1183   1.409       .  A
C1182      H1187   1.083       .  S
C1183      C1184   1.401       .  A
C1184      H1188   1.083       .  S
C1189      C1190   1.407       .  A
C1189      C1194   1.402       .  A
C1189      H1195   1.083       .  S
C1190      C1191   1.405       .  A
C1191      C1192   1.394       .  A
C1191      H1196   1.083       .  S
C1192      C1193   1.405       .  A
C1192      H1197   1.083       .  S
C1193      C1194   1.407       .  A
C1194      H1198   1.083       .  S
C1199      C1200   1.406       .  A
C1199      C1204   1.405       .  A
C1199      H1205   1.083       .  S
C1200      C1201   1.403       .  A
C1201      C1202   1.394       .  A
C1201      H1206   1.083       .  S
C1202      C1203   1.407       .  A
C1202      H1207   1.083       .  S
C1203      C1204   1.408       .  A
C1204      H1208   1.083       .  S
C1209      C1210   1.403       .  A
C1209      C1214   1.393       .  A
C1209      H1215   1.083       .  S
C1210      C1211   1.406       .  A
C1211      C1212   1.405       .  A
C1211      H1216   1.083       .  S
C1212      C1213   1.409       .  A
C1212      H1217   1.083       .  S
C1213      C1214   1.407       .  A
C1214      H1218   1.083       .  S
C1219      C1220   1.401       .  A
C1219      C1224   1.394       .  A
C1219      H1225   1.083       .  S
C1220      C1221   1.409       .  A
C1221      C1222   1.393       .  A
C1221      H1226   1.083       .  S
C1222      C1223   1.401       .  A
C1222      H1227   1.083       .  S
C1223      C1224   1.409       .  A
C1224      H1228   1.083       .  S
C1229      C1230   1.407       .  A
C1229      C1650   1.401       .  A
C1229      H1235   1.083       .  S
C1230      C1231   1.405       .  A
C1231      C1648   1.394       .  A
C1231      H1236   1.083       .  S
C1232      C1647   1.394   1_554  A
C1232      C1233   1.404       .  A
C1232      H1237   1.083       .  S
C1233      C1234   1.406       .  A
C1234      C1645   1.401   1_554  A
C1234      H1238   1.083       .  S
C1239      C1240   1.404       .  A
C1239      C1244   1.400       .  A
C1239      H1245   1.083       .  S
C1240      C1241   1.408       .  A
C1241      C1242   1.400       .  A
C1241      H1246   1.083       .  S
C1242      C1243   1.404       .  A
C1242      H1247   1.083       .  S
C1243      C1244   1.408       .  A
C1244      H1248   1.083       .  S
Fe1249     O1265   2.063       .  S
Fe1249     O1255   2.082       .  S
Fe1249     O1262   2.080       .  S
Fe1249     O1254   2.049       .  S
Fe1249     O1260   1.935       .  S
Fe1250     O1253   2.025       .  S
Fe1250     O1257   2.089       .  S
Fe1250     O1261   2.060       .  S
Fe1250     O1266   2.099       .  S
Fe1250     O1260   1.946       .  S
Fe1251     O1269   2.097       .  S
Fe1251     O1256   2.042       .  S
Fe1251     O1263   2.063       .  S
Fe1251     O1252   2.098       .  S
Fe1251     O1260   1.939       .  S
O1252      C1259   1.279       .  A
O1253      C1267   1.264       .  A
O1254      C1259   1.272       .  A
O1255      C1258   1.271       .  A
O1256      C1268   1.265       .  A
O1257      C1270   1.275       .  A
C1258      O1263   1.266       .  A
C1258      C1626   1.480       .  S
C1259      C1646   1.481       .  S
O1261      C1264   1.269       .  A
O1262      C1264   1.273       .  A
C1264      C1606   1.481       .  S
O1265      C1270   1.273       .  A
O1266      C1268   1.275       .  A
C1267      O1269   1.278       .  A
C1267      C1636   1.473       .  S
C1268      C1619   1.486       .  S
C1270      C1656   1.483       .  S
Fe1271     O1287   2.063       .  S
Fe1271     O1277   2.083       .  S
Fe1271     O1284   2.079       .  S
Fe1271     O1276   2.049       .  S
Fe1271     O1282   1.935       .  S
Fe1272     O1275   2.026       .  S
Fe1272     O1279   2.089       .  S
Fe1272     O1283   2.061       .  S
Fe1272     O1288   2.099       .  S
Fe1272     O1282   1.946       .  S
Fe1273     O1291   2.095       .  S
Fe1273     O1278   2.043       .  S
Fe1273     O1285   2.063       .  S
Fe1273     O1274   2.098       .  S
Fe1273     O1282   1.939       .  S
O1274      C1281   1.278       .  A
O1275      C1289   1.265       .  A
O1276      C1281   1.272       .  A
O1277      C1280   1.271       .  A
O1278      C1290   1.266       .  A
O1279      C1292   1.276       .  A
C1280      O1285   1.266       .  A
C1280      C1576   1.480       .  S
C1281      C1649   1.478       .  S
O1283      C1286   1.269       .  A
O1284      C1286   1.273       .  A
C1286      C1566   1.482       .  S
O1287      C1292   1.273       .  A
O1288      C1290   1.275       .  A
C1289      O1291   1.277       .  A
C1289      C1596   1.472       .  S
C1290      C1586   1.486       .  S
C1292      C1659   1.483       .  S
Fe1293     O1309   2.077   1_455  S
Fe1293     O1299   2.053       .  S
Fe1293     O1306   2.066       .  S
Fe1293     O1304   1.934   1_455  S
Fe1294     O1297   2.099       .  S
Fe1294     O1301   2.062       .  S
Fe1294     O1305   2.090       .  S
Fe1294     O1310   2.027       .  S
Fe1294     O1304   1.945       .  S
Fe1295     O1313   2.044       .  S
Fe1295     O1300   2.093       .  S
Fe1295     O1307   2.098       .  S
Fe1295     O1296   2.061   1_655  S
Fe1295     O1304   1.938       .  S
O1297      C1311   1.275       .  A
O1298      C1303   1.272       .  A
O1299      C1302   1.272   1_455  A
O1300      C1312   1.277       .  A
O1301      C1314   1.269       .  A
C1302      O1307   1.277       .  A
C1302      C1546   1.469   1_655  S
C1303      C1616   1.480       .  S
O1305      C1308   1.276       .  A
O1306      C1308   1.274   1_455  A
C1308      C1556   1.484   1_655  S
O1309      C1314   1.272       .  A
O1310      C1312   1.264       .  A
C1311      O1313   1.266       .  A
C1311      C1629   1.486       .  S
C1312      C1599   1.472       .  S
C1314      C1536   1.481       .  S
Fe1315     O1331   2.081       .  S
Fe1315     O1321   2.052       .  S
Fe1315     O1328   2.065       .  S
Fe1315     O1326   1.938       .  S
Fe1316     O1319   2.100       .  S
Fe1316     O1323   2.060       .  S
Fe1316     O1327   2.088       .  S
Fe1316     O1332   2.026       .  S
Fe1316     O1326   1.950       .  S
Fe1317     O1335   2.042       .  S
Fe1317     O1322   2.097       .  S
Fe1317     O1329   2.094       .  S
Fe1317     O1318   2.065       .  S
Fe1317     O1326   1.939       .  S
O1318      C1325   1.266       .  A
O1319      C1333   1.274       .  A
O1321      C1324   1.273       .  A
O1322      C1334   1.278       .  A
O1323      C1336   1.270       .  A
C1324      O1329   1.278       .  A
C1324      C1549   1.482       .  S
O1327      C1330   1.275       .  A
O1328      C1330   1.273       .  A
C1330      C1559   1.484       .  S
O1331      C1336   1.274       .  A
O1332      C1334   1.265       .  A
C1333      O1335   1.265       .  A
C1333      C1579   1.486       .  S
C1334      C1639   1.472       .  S
C1336      C1526   1.482       .  S
Fe1337     O1353   2.079       .  S
Fe1337     O1343   2.049       .  S
Fe1337     O1350   2.063       .  S
Fe1337     O1342   2.081       .  S
Fe1337     O1348   1.936       .  S
Fe1338     O1341   2.099       .  S
Fe1338     O1345   2.060       .  S
Fe1338     O1349   2.089       .  S
Fe1338     O1354   2.026       .  S
Fe1338     O1348   1.948       .  S
Fe1339     O1357   2.043       .  S
Fe1339     O1344   2.095       .  S
Fe1339     O1351   2.096       .  S
Fe1339     O1340   2.064       .  S
Fe1339     O1348   1.939       .  S
O1340      C1347   1.266       .  A
O1341      C1355   1.274       .  A
O1342      C1347   1.271       .  A
O1343      C1346   1.272       .  A
O1344      C1356   1.278       .  A
O1345      C1358   1.270       .  A
C1346      O1351   1.278       .  A
C1346      C1506   1.481       .  S
C1347      C1486   1.480       .  S
O1349      C1352   1.275       .  A
O1350      C1352   1.273       .  A
C1352      C1516   1.483       .  S
O1353      C1358   1.273       .  A
O1354      C1356   1.265       .  A
C1355      O1357   1.266       .  A
C1355      C1476   1.486       .  S
C1356      C1499   1.471       .  S
C1358      C1609   1.481       .  S
Fe1359     O1375   2.079       .  S
Fe1359     O1365   2.049       .  S
Fe1359     O1372   2.063       .  S
Fe1359     O1364   2.083       .  S
Fe1359     O1370   1.934       .  S
Fe1360     O1363   2.100       .  S
Fe1360     O1367   2.061       .  S
Fe1360     O1371   2.089       .  S
Fe1360     O1376   2.026       .  S
Fe1360     O1370   1.945       .  S
Fe1361     O1379   2.042       .  S
Fe1361     O1366   2.096       .  S
Fe1361     O1373   2.098       .  S
Fe1361     O1362   2.063       .  S
Fe1361     O1370   1.938       .  S
O1362      C1369   1.266       .  A
O1363      C1377   1.275       .  A
O1364      C1369   1.272       .  A
O1365      C1368   1.272       .  A
O1366      C1378   1.278       .  A
O1367      C1380   1.269       .  A
C1368      O1373   1.278       .  A
C1368      C1509   1.477       .  S
C1369      C1446   1.481       .  S
O1371      C1374   1.276       .  A
O1372      C1374   1.273       .  A
C1374      C1519   1.483       .  S
O1375      C1380   1.273       .  A
O1376      C1378   1.264       .  A
C1377      O1379   1.266       .  A
C1377      C1456   1.485       .  S
C1378      C1469   1.472       .  S
C1380      C1569   1.481       .  S
Fe1381     O1397   2.065       .  S
Fe1381     O1394   2.081   1_455  S
Fe1381     O1386   2.051       .  S
Fe1381     O1392   1.937   1_455  S
Fe1382     O1385   2.026       .  S
Fe1382     O1389   2.088       .  S
Fe1382     O1393   2.060       .  S
Fe1382     O1398   2.099       .  S
Fe1382     O1392   1.949       .  S
Fe1383     O1401   2.097       .  S
Fe1383     O1388   2.042       .  S
Fe1383     O1395   2.065       .  S
Fe1383     O1384   2.095       .  S
Fe1383     O1392   1.939       .  S
O1384      C1391   1.278       .  A
O1385      C1399   1.265       .  A
O1386      C1391   1.273   1_455  A
O1387      C1390   1.271       .  A
O1388      C1400   1.265       .  A
O1389      C1402   1.275       .  A
C1390      C1479   1.480       .  S
C1391      C1426   1.483   1_655  S
O1393      C1396   1.270       .  A
O1394      C1396   1.274       .  A
C1396      C1539   1.481       .  S
O1397      C1402   1.273   1_455  A
O1398      C1400   1.274       .  A
C1399      O1401   1.278       .  A
C1399      C1466   1.472       .  S
C1400      C1489   1.486       .  S
C1402      C1436   1.484   1_655  S
Fe1403     O1419   2.066       .  S
Fe1403     O1416   2.078       .  S
Fe1403     O1408   2.052       .  S
Fe1403     O1414   1.933       .  S
Fe1404     O1407   2.026       .  S
Fe1404     O1411   2.090       .  S
Fe1404     O1415   2.062       .  S
Fe1404     O1420   2.100       .  S
Fe1404     O1414   1.944       .  S
Fe1405     O1423   2.093       .  S
Fe1405     O1410   2.043       .  S
Fe1405     O1417   2.061       .  S
Fe1405     O1406   2.098       .  S
Fe1405     O1414   1.938       .  S
O1406      C1413   1.277       .  A
O1407      C1421   1.264       .  A
O1408      C1413   1.272       .  A
O1410      C1422   1.266       .  A
O1411      C1424   1.276       .  A
C1412      O1417   1.266       .  A
C1413      C1429   1.470       .  S
O1415      C1418   1.269       .  A
O1416      C1418   1.272       .  A
C1418      C1529   1.481       .  S
O1419      C1424   1.274       .  A
O1420      C1422   1.275       .  A
C1421      O1423   1.277       .  A
C1421      C1496   1.471       .  S
C1422      C1449   1.486       .  S
C1424      C1439   1.484       .  S
C1425      C1426   1.408   1_655  A
C1425      H1431   1.083       .  S
C1427      H1432   1.083       .  S
C1428      C1429   1.401       .  A
C1428      H1433   1.084       .  S
C1430      H1434   1.083       .  S
C1435      C1436   1.408   1_655  A
C1435      C1440   1.401       .  A
C1435      H1441   1.083       .  S
C1437      C1438   1.400       .  A
C1437      H1442   1.083       .  S
C1438      C1439   1.408       .  A
C1438      H1443   1.083       .  S
C1440      H1444   1.083       .  S
C1445      C1446   1.403       .  A
C1445      C1450   1.394       .  A
C1445      H1451   1.083       .  S
C1446      C1447   1.406       .  A
C1447      C1448   1.405       .  A
C1447      H1452   1.083       .  S
C1448      C1449   1.409       .  A
C1448      H1453   1.083       .  S
C1449      C1450   1.407       .  A
C1450      H1454   1.083       .  S
C1455      C1456   1.407       .  A
C1455      C1460   1.393       .  A
C1455      H1461   1.083       .  S
C1456      C1457   1.408       .  A
C1457      C1458   1.405       .  A
C1457      H1462   1.083       .  S
C1458      C1459   1.406       .  A
C1458      H1463   1.083       .  S
C1459      C1460   1.403       .  A
C1460      H1464   1.083       .  S
C1465      C1466   1.401       .  A
C1465      C1470   1.393       .  A
C1465      H1471   1.083       .  S
C1466      C1467   1.409       .  A
C1467      C1468   1.393       .  A
C1467      H1472   1.083       .  S
C1468      C1469   1.401       .  A
C1468      H1473   1.083       .  S
C1469      C1470   1.409       .  A
C1470      H1474   1.083       .  S
C1475      C1476   1.407       .  A
C1475      C1480   1.393       .  A
C1475      H1481   1.083       .  S
C1476      C1477   1.409       .  A
C1477      C1478   1.405       .  A
C1477      H1482   1.083       .  S
C1478      C1479   1.406       .  A
C1478      H1483   1.083       .  S
C1479      C1480   1.403       .  A
C1480      H1484   1.083       .  S
C1485      C1486   1.402       .  A
C1485      C1490   1.393       .  A
C1485      H1491   1.083       .  S
C1486      C1487   1.406       .  A
C1487      C1488   1.406       .  A
C1487      H1492   1.083       .  S
C1488      C1489   1.409       .  A
C1488      H1493   1.083       .  S
C1489      C1490   1.407       .  A
C1490      H1494   1.083       .  S
C1495      C1496   1.408       .  A
C1495      C1500   1.393       .  A
C1495      H1501   1.083       .  S
C1496      C1497   1.401       .  A
C1497      C1498   1.393       .  A
C1497      H1502   1.083       .  S
C1498      C1499   1.408       .  A
C1498      H1503   1.083       .  S
C1499      C1500   1.401       .  A
C1500      H1504   1.083       .  S
C1505      C1506   1.407       .  A
C1505      H1511   1.083       .  S
C1506      C1507   1.406       .  A
C1507      H1512   1.083       .  S
C1508      C1509   1.404       .  A
C1508      H1513   1.083       .  S
C1509      C1510   1.405       .  A
C1510      H1514   1.083       .  S
C1515      C1516   1.404       .  A
C1515      C1520   1.400       .  A
C1515      H1521   1.083       .  S
C1516      C1517   1.408       .  A
C1517      C1518   1.400       .  A
C1517      H1522   1.083       .  S
C1518      C1519   1.404       .  A
C1518      H1523   1.083       .  S
C1519      C1520   1.408       .  A
C1520      H1524   1.083       .  S
C1525      C1526   1.405       .  A
C1525      C1530   1.394   1_565  A
C1525      H1531   1.083       .  S
C1526      C1527   1.407       .  A
C1527      C1528   1.402   1_565  A
C1527      H1532   1.083       .  S
C1528      C1529   1.406       .  A
C1528      H1533   1.083       .  S
C1529      C1530   1.405       .  A
C1530      H1534   1.083       .  S
C1535      C1536   1.405       .  A
C1535      C1540   1.394   1_565  A
C1535      H1541   1.083   1_655  S
C1536      C1537   1.406       .  A
C1537      C1538   1.402   1_565  A
C1537      H1542   1.083       .  S
C1538      C1539   1.407       .  A
C1538      H1543   1.083       .  S
C1539      C1540   1.405       .  A
C1540      H1544   1.083   1_655  S
C1545      C1546   1.401   1_655  A
C1545      H1551   1.084       .  S
C1547      H1552   1.083       .  S
C1548      C1549   1.408       .  A
C1548      H1553   1.083       .  S
C1550      H1554   1.083       .  S
C1555      C1560   1.401       .  A
C1555      H1561   1.083       .  S
C1556      C1557   1.408   1_455  A
C1557      C1558   1.400       .  A
C1557      H1562   1.083       .  S
C1558      H1563   1.083       .  S
C1559      C1560   1.408       .  A
C1560      H1564   1.083       .  S
C1565      C1566   1.405       .  A
C1565      C1570   1.394       .  A
C1565      H1571   1.083       .  S
C1566      C1567   1.407       .  A
C1567      C1568   1.402       .  A
C1567      H1572   1.083       .  S
C1568      C1569   1.407       .  A
C1568      H1573   1.083       .  S
C1569      C1570   1.405       .  A
C1570      H1574   1.083       .  S
C1575      C1576   1.402       .  A
C1575      C1580   1.393       .  A
C1575      H1581   1.083       .  S
C1576      C1577   1.406       .  A
C1577      C1578   1.405       .  A
C1577      H1582   1.083       .  S
C1578      C1579   1.409       .  A
C1578      H1583   1.083       .  S
C1579      C1580   1.407       .  A
C1580      H1584   1.083       .  S
C1585      C1586   1.407       .  A
C1585      C1590   1.393       .  A
C1585      H1591   1.083       .  S
C1586      C1587   1.409       .  A
C1587      C1588   1.405       .  A
C1587      H1592   1.083       .  S
C1588      C1589   1.406       .  A
C1588      H1593   1.083       .  S
C1589      C1590   1.403       .  A
C1590      H1594   1.083       .  S
C1595      C1596   1.409       .  A
C1595      C1600   1.393       .  A
C1595      H1601   1.083       .  S
C1596      C1597   1.401       .  A
C1597      C1598   1.393       .  A
C1597      H1602   1.083       .  S
C1598      C1599   1.409       .  A
C1598      H1603   1.083       .  S
C1599      C1600   1.401       .  A
C1600      H1604   1.083       .  S
C1605      C1606   1.407       .  A
C1605      C1610   1.402       .  A
C1605      H1611   1.083       .  S
C1606      C1607   1.405       .  A
C1607      C1608   1.394       .  A
C1607      H1612   1.083       .  S
C1608      C1609   1.405       .  A
C1608      H1613   1.083       .  S
C1609      C1610   1.407       .  A
C1610      H1614   1.083       .  S
C1615      C1616   1.406       .  A
C1615      C1620   1.405       .  A
C1615      H1621   1.083       .  S
C1616      C1617   1.403       .  A
C1617      C1618   1.394       .  A
C1617      H1622   1.083       .  S
C1618      C1619   1.407       .  A
C1618      H1623   1.083       .  S
C1619      C1620   1.408       .  A
C1620      H1624   1.083       .  S
C1625      C1626   1.403       .  A
C1625      C1630   1.393       .  A
C1625      H1631   1.083       .  S
C1626      C1627   1.406       .  A
C1627      C1628   1.405       .  A
C1627      H1632   1.083       .  S
C1628      C1629   1.409       .  A
C1628      H1633   1.083       .  S
C1629      C1630   1.407       .  A
C1630      H1634   1.083       .  S
C1635      C1636   1.401       .  A
C1635      C1640   1.394       .  A
C1635      H1641   1.083       .  S
C1636      C1637   1.409       .  A
C1637      C1638   1.393       .  A
C1637      H1642   1.083       .  S
C1638      C1639   1.401       .  A
C1638      H1643   1.083       .  S
C1639      C1640   1.409       .  A
C1640      H1644   1.083       .  S
C1645      C1646   1.407       .  A
C1645      H1651   1.083       .  S
C1646      C1647   1.405       .  A
C1647      H1652   1.083       .  S
C1648      C1649   1.404       .  A
C1648      H1653   1.083       .  S
C1649      C1650   1.406       .  A
C1650      H1654   1.083       .  S
C1655      C1656   1.404       .  A
C1655      C1660   1.400       .  A
C1655      H1661   1.083       .  S
C1656      C1657   1.408       .  A
C1657      C1658   1.400       .  A
C1657      H1662   1.083       .  S
C1658      C1659   1.404       .  A
C1658      H1663   1.083       .  S
C1659      C1660   1.408       .  A
C1660      H1664   1.083       .  S
