geometry optimzed in LAMMPS
_audit_creation_date              2020-12-01 
_audit_creation_method            'lammps2cif' 
_symmetry_space_group_name_H-M    'P1' 
_symmetry_Int_Tables_number       1 
_symmetry_cell_setting            triclinic 
loop_ 
_symmetry_equiv_pos_as_xyz 
  x,y,z 
_cell_length_a                    54.42508897 
_cell_length_b                    26.195619878230215 
_cell_length_c                    29.042027652965192 
_cell_angle_alpha                 90.29833036502913 
_cell_angle_beta                  119.29807571518938 
_cell_angle_gamma                 89.85764080688075 
loop_ 
_atom_site_label 
_atom_site_type_symbol 
_atom_site_fract_x 
_atom_site_fract_y 
_atom_site_fract_z 
_atom_site_charge 
O1          O  0.12296729  0.29284266  0.44857779    -0.84700
O2          O  0.09328044  0.26483644  0.34537773    -0.81700
C3          C  0.06819576  0.26241554  0.33767484     0.98800
O4          O  0.05588027  0.30221918  0.33984910    -0.81700
O5          O  0.04500500  0.40096852  0.35782837    -0.84400
C6          C  0.05240193  0.40101021  0.40661398     1.03300
O7          O  0.07732306  0.39045317  0.43967736    -0.77200
O8          O  0.13229825  0.36648282  0.48910623    -0.77300
C9          C  0.12898988  0.31851420  0.48935589     1.03300
O10         O  0.15796797  0.36258973  0.42771632    -0.84700
O11         O  0.12419089  0.34056678  0.32224522    -0.81700
C12         C  0.10269381  0.33420936  0.27780715     0.98800
O13         O  0.07829093  0.33663828  0.27340676    -0.81800
O14         O  0.07325071  0.43473889  0.30166631    -0.84400
C15         C  0.07320090  0.47288286  0.32796509     1.03300
O16         O  0.08401060  0.46943270  0.37786329    -0.77200
O17         O  0.13970971  0.43878437  0.42112358    -0.77300
C18         C  0.16052604  0.41097361  0.43054546     1.03300
Cr19       Cr  0.12318129  0.31871853  0.38579591     1.93700
Cr20       Cr  0.06547192  0.36841640  0.32201051     1.93200
Cr21       Cr  0.10792850  0.41337469  0.42838383     1.39100
O22         O  0.09908493  0.36723039  0.37846668    -1.22400
O23         O  0.12218185  0.12213985  0.97931874    -0.84700
O24         O  0.06774750  0.09152752  0.92238445    -0.81700
C25         C  0.04453673  0.07586987  0.88621559     0.98800
O26         O  0.04010225  0.07354477  0.83904332    -0.81700
O27         O  0.04624639  0.17345873  0.81794598    -0.84400
C28         C  0.05722492  0.21599049  0.81922312     1.03300
O29         O  0.08332231  0.21862724  0.83286221    -0.77200
O30         O  0.11086270  0.19434746  0.93702549    -0.77300
C31         C  0.11732019  0.16956781  0.97823274     1.03300
O32         O  0.13588464  0.05183560  0.91837644    -0.84700
O33         O  0.08243772  0.01296703  0.86932788    -0.81700
C34         C  0.07522777  0.00645509  0.82089902     0.98800
O35         O  0.07473030  0.04408265  0.79364039    -0.81800
O36         O  0.07608130  0.14424652  0.76269878    -0.84400
C37         C  0.10123916  0.15232116  0.77249274     1.03300
O38         O  0.12107281  0.14903028  0.81903223    -0.77200
O39         O  0.15166391  0.13010139  0.92457095    -0.77300
C40         C  0.15591674  0.08198786  0.92906453     1.03300
Cr41       Cr  0.10159176  0.07266303  0.91879802     1.93700
Cr42       Cr  0.06156644  0.10945854  0.80738695     1.93200
Cr43       Cr  0.11534654  0.16937203  0.87794548     1.39100
O44         O  0.09306570  0.11701912  0.86784393    -1.22400
O45         O  0.38073981  0.61954483  0.49505722    -0.84700
O46         O  0.43562362  0.59300193  0.54919659    -0.81700
C47         C  0.45988519  0.58226361  0.58528949     0.98800
O48         O  0.46570205  0.58469693  0.63317329    -0.81700
O49         O  0.45542846  0.68556562  0.64623536    -0.84400
C50         C  0.44293527  0.72644690  0.64489044     1.03300
O51         O  0.41748333  0.72551718  0.63504179    -0.77200
O52         O  0.39017303  0.69486539  0.53237182    -0.77300
C53         C  0.38455150  0.66706164  0.49306565     1.03300
O54         O  0.37015334  0.55239023  0.56295240    -0.84700
O55         O  0.42511858  0.51858842  0.61066372    -0.81700
C56         C  0.43469211  0.51567988  0.66024556     0.98800
O57         O  0.43548522  0.55510783  0.68606853    -0.81800
O58         O  0.42975696  0.65646848  0.70900984    -0.84400
C59         C  0.40474026  0.66100886  0.70134623     1.03300
O60         O  0.38415423  0.65365893  0.65595817    -0.77200
O61         O  0.35248235  0.62957209  0.55023719    -0.77300
C62         C  0.34936952  0.58145738  0.55014346     1.03300
Cr63       Cr  0.40328406  0.57404629  0.55782448     1.93700
Cr64       Cr  0.44424132  0.62080988  0.66460112     1.93200
Cr65       Cr  0.38755966  0.67222287  0.59399917     1.39100
O66         O  0.41152720  0.62197802  0.60577679    -1.22400
O67         O  0.37995747  0.79333827  0.02404421    -0.84700
O68         O  0.40980569  0.76032616  0.12546039    -0.81700
C69         C  0.43426281  0.75600785  0.13067629     0.98800
O70         O  0.44651332  0.79464690  0.12606627    -0.81700
O71         O  0.46002396  0.89422788  0.11412312    -0.84400
C72         C  0.45105099  0.89940866  0.06494766     1.03300
O73         O  0.42545075  0.89292680  0.03327387    -0.77200
O74         O  0.37098965  0.86897649  0.98802833    -0.77300
C75         C  0.37425039  0.82116105  0.98499535     1.03300
O76         O  0.34676462  0.86175256  0.04986025    -0.84700
O77         O  0.38217002  0.83619808  0.15526148    -0.81700
C78         C  0.40427307  0.82693027  0.19812434     0.98800
O79         O  0.42820913  0.82778538  0.20010623    -0.81800
O80         O  0.43672739  0.92641946  0.17942845    -0.84400
C81         C  0.43525838  0.96667469  0.15482721     1.03300
O82         O  0.42221995  0.96649463  0.10449058    -0.77200
O83         O  0.36618621  0.93728407  0.06379148    -0.77300
C84         C  0.34479825  0.91001735  0.05114583     1.03300
Cr85       Cr  0.38113052  0.81650776  0.08894332     1.93700
Cr86       Cr  0.44044332  0.86072570  0.15113739     1.93200
Cr87       Cr  0.39662546  0.91337156  0.05086987     1.39100
O88         O  0.40595095  0.86416873  0.09744442    -1.22400
C89         C  0.36601760  0.70681991  0.77268545    -0.27500
C90         C  0.38770431  0.73061185  0.81720184     0.06100
C91         C  0.41542997  0.72804003  0.82588170     0.25700
C92         C  0.42114801  0.70341892  0.78923028    -0.12000
C93         C  0.39930719  0.68059210  0.74360561    -0.26000
C94         C  0.37165969  0.68183580  0.73623982     0.36500
C95         C  0.38171466  0.75379711  0.85700551     0.06100
F96         F  0.43689263  0.74961758  0.86966803    -0.19700
H97         H  0.44255305  0.70334071  0.79594191     0.15900
F98         F  0.34994412  0.65919277  0.69367508    -0.23500
H99         H  0.34468482  0.70732801  0.76638682     0.17700
C100        C  0.37243334  0.80454439  0.85302421     0.25700
C101        C  0.36862645  0.82618444  0.89347984    -0.12000
C102        C  0.37362198  0.79712842  0.93787760    -0.26000
C103        C  0.38160554  0.74533481  0.93985234     0.36600
C104        C  0.38573695  0.72437455  0.90001773    -0.27600
F105        F  0.36780595  0.83335429  0.81082260    -0.19800
H106        H  0.36258031  0.86594755  0.89079534     0.15900
F107        F  0.38668234  0.71501873  0.98136445    -0.23500
H108        H  0.39261365  0.68503859  0.90318685     0.17700
C109        C  0.37330643  0.79363107  0.28645725    -0.27500
C110        C  0.39493648  0.76412176  0.32537048     0.06100
C111        C  0.42034749  0.75833576  0.32441977     0.25700
C112        C  0.42378265  0.78109122  0.28441717    -0.12000
C113        C  0.40178275  0.80932026  0.24419706    -0.26000
C114        C  0.37648021  0.81565833  0.24591339     0.36500
C115        C  0.39066571  0.73898161  0.36638112     0.06100
F116        F  0.44176952  0.73052865  0.36209890    -0.19700
H117        H  0.44334576  0.77502354  0.28389729     0.15900
F118        F  0.35455356  0.84227883  0.20793766    -0.23500
H119        H  0.35359656  0.79846032  0.28673686     0.17700
C120        C  0.38651200  0.76824703  0.40255959     0.25700
C121        C  0.38316668  0.74433197  0.44200191    -0.12000
C122        C  0.38375147  0.69073241  0.44607151    -0.26000
C123        C  0.38711023  0.66140612  0.40872187     0.36600
C124        C  0.39067912  0.68550781  0.36943010    -0.27600
F125        F  0.38683884  0.82001917  0.40104155    -0.19800
H126        H  0.38085029  0.76800465  0.47033862     0.15900
F127        F  0.38822001  0.60968152  0.41146707    -0.23500
H128        H  0.39370212  0.66244063  0.34152409     0.17700
C129        C  0.23139850  0.05825689  0.95822855    -0.27500
C130        C  0.23661520  0.00939589  0.98129617     0.06100
C131        C  0.21559838  0.98630568  0.98890108     0.25700
C132        C  0.18984432  0.01081879  0.97248216    -0.12000
C133        C  0.18435764  0.05928537  0.94869532    -0.26000
C134        C  0.20554783  0.08309833  0.94210828     0.36500
C135        C  0.26419975  0.98345545  0.99881363     0.06100
F136        F  0.22014385  0.94054447  0.01350769    -0.19700
H137        H  0.17410371  0.99172136  0.97876404     0.15900
F138        F  0.20098381  0.12938376  0.91853751    -0.23500
H139        H  0.24725062  0.07690859  0.95196791     0.17700
C140        C  0.26573094  0.93182985  0.98638367     0.25700
C141        C  0.29191522  0.90785023  0.00467501    -0.12000
C142        C  0.31714484  0.93492356  0.03482779    -0.26000
C143        C  0.31554824  0.98672566  0.04664057     0.36600
C144        C  0.28939738  0.01044423  0.02893896    -0.27600
F145        F  0.24196631  0.90492017  0.95509836    -0.19800
H146        H  0.29242364  0.86832794  0.99403776     0.15900
F147        F  0.33924578  0.01460052  0.07572621    -0.23500
H148        H  0.28884432  0.05004028  0.03931850     0.17700
C149        C  0.47152525  0.94685175  0.96571509    -0.27500
C150        C  0.49682945  0.97264974  0.99761570     0.06100
C151        C  0.00765244  0.97424436  0.04755127     0.25700
C152        C  0.49481112  0.94301247  0.07543403    -0.12000
C153        C  0.46892287  0.91864158  0.04308786    -0.26000
C154        C  0.45790169  0.91978356  0.98778550     0.36500
C155        C  0.00781038  0.99375956  0.96229059     0.06100
F156        F  0.02795380  0.00978505  0.07385797    -0.19700
H157        H  0.00196235  0.95987758  0.11462092     0.15900
F158        F  0.43318266  0.89647984  0.95434209    -0.23500
H159        H  0.46165684  0.94889161  0.92309511     0.17700
C160        C  0.01478366  0.96917353  0.92695147     0.25700
C161        C  0.02319552  0.99764050  0.89659441    -0.12000
C162        C  0.02597790  0.05073090  0.90237135    -0.26000
C163        C  0.01841175  0.07564276  0.93651436     0.36600
C164        C  0.00894857  0.04738897  0.96557012    -0.27600
F165        F  0.50465056  0.93340872  0.91339314    -0.19800
H166        H  0.02982352  0.97778428  0.87178472     0.15900
F167        F  0.02123619  0.12704063  0.94315918    -0.23500
H168        H  0.00296401  0.06738122  0.99131414     0.17700
C169        C  0.00002883  0.81126026  0.67069258    -0.27500
C170        C  0.99887190  0.84438529  0.70766743     0.06100
C171        C  0.47488884  0.84917781  0.71740946     0.25700
C172        C  0.45545266  0.80973547  0.69263095    -0.12000
C173        C  0.45938590  0.77422791  0.66051113    -0.26000
C174        C  0.48178108  0.78124167  0.64995975     0.36500
C175        C  0.02225749  0.88062583  0.73790670     0.06100
F176        F  0.47073371  0.88234733  0.74902094    -0.19700
H177        H  0.43823299  0.80526442  0.70096896     0.15900
F178        F  0.98187973  0.74075831  0.61186301    -0.23500
H179        H  0.01747282  0.81317729  0.66271600     0.17700
C180        C  0.03513373  0.88330725  0.79325356     0.25700
C181        C  0.05502876  0.92119614  0.82100896    -0.12000
C182        C  0.06213699  0.95761245  0.79409678    -0.26000
C183        C  0.05149223  0.95136351  0.73928822     0.36600
C184        C  0.03167916  0.91320301  0.71156868    -0.27600
F185        F  0.02792247  0.85011131  0.82039653    -0.19800
H186        H  0.06347500  0.92392635  0.86331408     0.15900
F187        F  0.05892543  0.98381056  0.71189509    -0.23500
H188        H  0.02263767  0.91077038  0.66908647     0.17700
C189        C  0.02542383  0.34474399  0.75846472    -0.27500
C190        C  0.99846238  0.34096135  0.75344115     0.06100
C191        C  0.50257139  0.30889258  0.79738340     0.25700
C192        C  0.01156369  0.25873061  0.79719580    -0.12000
C193        C  0.03839041  0.26149341  0.80096543    -0.26000
C194        C  0.04534382  0.30564875  0.78236071     0.36500
C195        C  0.48748260  0.39000136  0.74663343     0.06100
F196        F  0.47681711  0.30465933  0.79371779    -0.19700
H197        H  0.00551600  0.22537086  0.81118988     0.15900
F198        F  0.07079922  0.31005683  0.78484551    -0.23500
H199        H  0.03085044  0.37774038  0.74294227     0.17700
C200        C  0.48168856  0.42883868  0.77329097     0.25700
C201        C  0.46274731  0.46782003  0.74476251    -0.12000
C202        C  0.44912888  0.46844379  0.68913125    -0.26000
C203        C  0.45357053  0.42710585  0.66267525     0.36600
C204        C  0.47280609  0.38862817  0.69135569    -0.27600
F205        F  0.97945028  0.41194367  0.80441456    -0.19800
H206        H  0.45978733  0.49880414  0.76640027     0.15900
F207        F  0.44046509  0.42492110  0.60915692    -0.23500
H208        H  0.47674871  0.35820608  0.67038905     0.20900
C209        C  0.12055100  0.21561461  0.57192673    -0.27500
C210        C  0.12387723  0.24328155  0.61586911     0.06100
C211        C  0.13174458  0.29501892  0.62098539     0.25700
C212        C  0.13472559  0.31919755  0.58095258    -0.12000
C213        C  0.13033509  0.29189345  0.53569104    -0.26000
C214        C  0.12390100  0.23923737  0.53244425     0.36500
C215        C  0.11826895  0.21792382  0.65519380     0.06100
F216        F  0.13524455  0.32263187  0.66345661    -0.19700
H217        H  0.13954254  0.35960151  0.58458524     0.15900
F218        F  0.11967417  0.21056108  0.49011214    -0.23500
H219        H  0.11487097  0.17556204  0.56779095     0.17700
C220        C  0.09129434  0.19888049  0.64076303     0.25700
C221        C  0.08597123  0.17590888  0.67847679    -0.12000
C222        C  0.10757840  0.17071590  0.73102449    -0.26000
C223        C  0.13494494  0.18801416  0.74461032     0.36600
C224        C  0.14001874  0.21177630  0.70709849    -0.27600
F225        F  0.06989376  0.20400960  0.59050973    -0.19800
H226        H  0.06479239  0.16315012  0.66675917     0.15900
F227        F  0.15680995  0.18340250  0.79449929    -0.23500
H228        H  0.16102433  0.22544990  0.71858256     0.17700
C229        C  0.08694429  0.29269863  0.14057094    -0.27500
C230        C  0.11308767  0.27236793  0.15105908     0.06100
C231        C  0.13626916  0.27738360  0.20194682     0.25700
C232        C  0.13296122  0.30009409  0.24219934    -0.12000
C233        C  0.10643964  0.31798608  0.23262163    -0.26000
C234        C  0.08354319  0.31520450  0.18090864     0.36500
C235        C  0.11590854  0.24631911  0.10853188     0.06100
F236        F  0.16210300  0.26027138  0.21273815    -0.19700
H237        H  0.15107354  0.30199503  0.28143208     0.15900
F238        F  0.05779305  0.33336586  0.16940348    -0.23500
H239        H  0.06892557  0.28988200  0.10128206     0.17700
C240        C  0.12569628  0.19570102  0.11410561     0.25700
C241        C  0.12681212  0.17102375  0.07220122    -0.12000
C242        C  0.11832816  0.19652652  0.02424414    -0.26000
C243        C  0.10894122  0.24757895  0.01938673     0.36600
C244        C  0.10771076  0.27186206  0.06102917    -0.27600
F245        F  0.13310961  0.16950943  0.15925394    -0.19800
H246        H  0.13382909  0.13173249  0.07697663     0.15900
F247        F  0.10011069  0.27399439  0.97387269    -0.23500
H248        H  0.10012195  0.31081651  0.05604878     0.17700
C249        C  0.47377594  0.09408808  0.19008061    -0.27500
C250        C  0.49162334  0.08853923  0.24460724     0.06100
C251        C  0.48916052  0.04515765  0.27001740     0.25700
C252        C  0.46961185  0.00713181  0.24086631    -0.12000
C253        C  0.45212500  0.01156056  0.18569933    -0.26000
C254        C  0.45414656  0.05608723  0.16074288     0.36500
C255        C  0.01371687  0.13384629  0.27008932     0.06100
F256        F  0.01363224  0.03979162  0.31720941    -0.19700
H257        H  0.46894355  0.97325219  0.26143277     0.15900
F258        F  0.43787397  0.06233864  0.10786240    -0.23500
H259        H  0.47534008  0.12772019  0.17011984     0.17700
C260        C  0.03793387  0.13864455  0.26486136     0.25700
C261        C  0.05691482  0.17864937  0.29020944    -0.12000
C262        C  0.05174099  0.21459173  0.32051013    -0.26000
C263        C  0.02811206  0.20800419  0.32767966     0.36600
C264        C  0.00935970  0.16780638  0.30272329    -0.27600
F265        F  0.54171390  0.10123645  0.23790141    -0.19800
H266        H  0.07480730  0.18309528  0.28380469     0.15900
F267        F  0.02270091  0.24127044  0.35762787    -0.23500
H268        H  0.99096586  0.16393359  0.30767964     0.17700
C269        C  0.46686409  0.63738668  0.21075304    -0.27500
C270        C  0.99355861  0.63203121  0.21274843     0.06100
C271        C  0.49225161  0.66060952  0.16482225     0.25700
C272        C  0.47263073  0.69911127  0.13851292    -0.12000
C273        C  0.45037698  0.70808781  0.14896846    -0.26000
C274        C  0.44713295  0.67588786  0.18426554     0.36500
C275        C  0.01502584  0.59289841  0.24299081     0.06100
F276        F  0.51440465  0.65513234  0.15597123    -0.19700
H277        H  0.47559657  0.72358968  0.11166840     0.15900
F278        F  0.42625075  0.68398808  0.19626494    -0.23500
H279        H  0.96886959  0.61889297  0.25156546     0.17700
C280        C  0.02937224  0.59285028  0.29851678     0.25700
C281        C  0.04978053  0.55567456  0.32629971    -0.12000
C282        C  0.05616496  0.51789319  0.29918970    -0.26000
C283        C  0.04219102  0.51907159  0.24345743     0.36600
C284        C  0.02181627  0.55602815  0.21594358    -0.27600
F285        F  0.02372649  0.62878323  0.32589905    -0.19800
H286        H  0.05983552  0.55542378  0.36897503     0.15900
F287        F  0.04728608  0.48340252  0.21507109    -0.23500
H288        H  0.51087853  0.55641244  0.16560843     0.17700
C289        C  0.26996460  0.56114206  0.48535267    -0.27500
C290        C  0.26844123  0.51021189  0.49901943     0.06100
C291        C  0.29369611  0.48368181  0.53040123     0.25700
C292        C  0.31970977  0.50738453  0.54704155    -0.12000
C293        C  0.32130854  0.55825576  0.53337079    -0.26000
C294        C  0.29606170  0.58509789  0.50248621     0.36500
C295        C  0.24062336  0.48497191  0.48067781     0.06100
F296        F  0.29329799  0.43508901  0.54604323    -0.19700
H297        H  0.33873456  0.48579386  0.57109560     0.15900
F298        F  0.29650336  0.63390168  0.48745388    -0.23500
H299        H  0.25087290  0.58224733  0.46058950     0.17700
C300        C  0.21900522  0.50972136  0.48545202     0.25700
C301        C  0.19309672  0.48549706  0.46860368    -0.12000
C302        C  0.18817349  0.43577241  0.44729489    -0.26000
C303        C  0.20976080  0.41093741  0.44251570     0.36600
C304        C  0.23559216  0.43550542  0.45870151    -0.27600
F305        F  0.22317647  0.55672428  0.50797935    -0.19800
H306        H  0.17698793  0.50547075  0.47324343     0.15900
F307        F  0.20576277  0.36338945  0.42125884    -0.23500
H308        H  0.25166599  0.41589955  0.45367532     0.17700
C309        C  0.98760056  0.55608997  0.48999904    -0.27500
C310        C  0.49731983  0.49715020  0.51192765     0.06100
C311        C  0.49179283  0.47459678  0.54988894     0.25700
C312        C  0.48315299  0.50460417  0.57915868    -0.12000
C313        C  0.47872373  0.55705256  0.56973802    -0.26000
C314        C  0.48518476  0.58014291  0.53351621     0.36500
C315        C  0.00741033  0.47460456  0.47490797     0.06100
F316        F  0.49279992  0.42318170  0.55622640    -0.19700
H317        H  0.47753326  0.48613261  0.60595936     0.15900
F318        F  0.96671104  0.63226456  0.50019390    -0.23500
H319        H  0.99089674  0.57507532  0.46044850     0.17700
C320        C  0.99739263  0.47845460  0.42005787     0.25700
C321        C  0.01077181  0.45155142  0.39654137    -0.12000
C322        C  0.03394501  0.41985259  0.42712547    -0.26000
C323        C  0.04264888  0.41378161  0.48114039     0.36600
C324        C  0.03005778  0.44179917  0.50467061    -0.27600
F325        F  0.97493626  0.50841860  0.38926282    -0.19800
H326        H  0.00377628  0.45720676  0.35502124     0.15900
F327        F  0.06437489  0.38245399  0.51225106    -0.23500
H328        H  0.03877282  0.43873091  0.54697838     0.17700
O329        O  0.62074405  0.29450561  0.44908977    -0.84700
O330        O  0.59058792  0.26295480  0.34634487    -0.81700
C331        C  0.56558236  0.25954468  0.33895937     0.98800
O332        O  0.55268512  0.29895568  0.34008801    -0.81700
O333        O  0.54043504  0.39749728  0.35541257    -0.84400
C334        C  0.54821444  0.39765071  0.40437653     1.03300
O335        O  0.57357224  0.39036796  0.43727124    -0.77200
O336        O  0.62876733  0.37015862  0.48562379    -0.77300
C337        C  0.62639076  0.32224757  0.48851534     1.03300
O338        O  0.65365931  0.36540494  0.42312085    -0.84700
O339        O  0.61957467  0.33918516  0.31879539    -0.81700
C340        C  0.59793758  0.33122177  0.27488866     0.98800
O341        O  0.57368152  0.33235113  0.27122200    -0.81800
O342        O  0.56708753  0.43133108  0.29605449    -0.84400
C343        C  0.56756087  0.47045083  0.32170398     1.03300
O344        O  0.57815068  0.46803090  0.37158068    -0.77200
O345        O  0.63388882  0.44053110  0.41358559    -0.77300
C346        C  0.65513000  0.41394633  0.42318644     1.03300
Cr347      Cr  0.61965692  0.31889348  0.38406170     1.93700
Cr348      Cr  0.56089346  0.36506297  0.31952065     1.93200
Cr349      Cr  0.60316450  0.41418662  0.42355263     1.39100
O350        O  0.59476028  0.36635382  0.37543137    -1.22400
O351        O  0.63145954  0.12271871  0.98986233    -0.84700
O352        O  0.57619892  0.09682188  0.93851783    -0.81700
C353        C  0.55192782  0.08432453  0.90357295     0.98800
O354        O  0.54583787  0.08392521  0.85532799    -0.81700
O355        O  0.55446715  0.18322619  0.83717224    -0.84400
C356        C  0.56619699  0.22471065  0.83793633     1.03300
O357        O  0.59178760  0.22519117  0.84819323    -0.77200
O358        O  0.62152670  0.19701955  0.95128374    -0.77300
C359        C  0.62798447  0.17041892  0.99143759     1.03300
O360        O  0.64004805  0.05295451  0.92153977    -0.84700
O361        O  0.58562584  0.01898298  0.87754577    -0.81700
C362        C  0.57655928  0.01415192  0.82821142     0.98800
O363        O  0.57614561  0.05235819  0.80171607    -0.81800
O364        O  0.57948942  0.15279207  0.77367045    -0.84400
C365        C  0.60419975  0.15901549  0.78021570     1.03300
O366        O  0.62511725  0.15337711  0.82537574    -0.77200
O367        O  0.65791271  0.12970454  0.92977974    -0.77300
C368        C  0.66058970  0.08129591  0.93086474     1.03300
Cr369      Cr  0.60790905  0.07606885  0.92843304     1.93700
Cr370      Cr  0.56633735  0.11846622  0.82083688     1.93200
Cr371      Cr  0.62262898  0.17269587  0.88832014     1.39100
O372        O  0.59915425  0.12229296  0.87898539    -1.22400
O373        O  0.87442870  0.62608976  0.48573591    -0.84700
O374        O  0.92848539  0.59497991  0.53666830    -0.81700
C375        C  0.95266842  0.58256921  0.57185298     0.98800
O376        O  0.95855314  0.58155070  0.61984754    -0.81700
O377        O  0.95098820  0.68086164  0.64029699    -0.84400
C378        C  0.93967386  0.72246541  0.64104981     1.03300
O379        O  0.91435323  0.72348625  0.63193952    -0.77200
O380        O  0.88599388  0.69931206  0.52736485    -0.77300
C381        C  0.87966507  0.67336235  0.48657130     1.03300
O382        O  0.86270278  0.55621884  0.55005133    -0.84700
O383        O  0.91684589  0.51748206  0.59406003    -0.81700
C384        C  0.92646967  0.51146884  0.64340651     0.98800
O385        O  0.92794900  0.54932576  0.67165179    -0.81800
O386        O  0.92476014  0.64924757  0.70148215    -0.84400
C387        C  0.89997683  0.65548113  0.69459953     1.03300
O388        O  0.87910911  0.65252306  0.64881868    -0.77200
O389        O  0.84680696  0.63460056  0.54170289    -0.77300
C390        C  0.84268125  0.58665583  0.53930361     1.03300
Cr391      Cr  0.89603543  0.57662075  0.54517080     1.93700
Cr392      Cr  0.93820162  0.61591519  0.65441351     1.93200
Cr393      Cr  0.88296656  0.67367426  0.58781885     1.39100
O394        O  0.90555331  0.62172796  0.59610837    -1.22400
O395        O  0.88551188  0.79178311  0.03001987    -0.84700
O396        O  0.91419152  0.76323820  0.13333950    -0.81700
C397        C  0.93885088  0.75867724  0.13969918     0.98800
O398        O  0.95113548  0.79684520  0.13426678    -0.81700
O399        O  0.96396585  0.89541701  0.11841783    -0.84400
C400        C  0.95555189  0.89794954  0.06926268     1.03300
O401        O  0.93000358  0.89224239  0.03674379    -0.77200
O402        O  0.87592847  0.86596959  0.99065743    -0.77300
C403        C  0.87972928  0.81799687  0.98983758     1.03300
O404        O  0.85070801  0.86102440  0.05000920    -0.84700
O405        O  0.88494475  0.84103391  0.15715308    -0.81700
C406        C  0.90681941  0.83422730  0.20111591     0.98800
O407        O  0.93100629  0.83398119  0.20423939    -0.81800
O408        O  0.93884338  0.93063853  0.17991754    -0.84400
C409        C  0.93749325  0.97002626  0.15437563     1.03300
O410        O  0.92512092  0.96835843  0.10409195    -0.77200
O411        O  0.86940928  0.93710606  0.06301531    -0.77300
C412        C  0.84826075  0.90916146  0.05013380     1.03300
Cr413      Cr  0.88528643  0.81779864  0.09287326     1.93700
Cr414      Cr  0.94390171  0.86410735  0.15533877     1.93200
Cr415      Cr  0.90048852  0.91305827  0.05214220     1.39100
O416        O  0.90983833  0.86551190  0.10040259    -1.22400
C417        C  0.86411361  0.70268586  0.77106843    -0.27500
C418        C  0.88729488  0.71814545  0.81877422     0.06100
C419        C  0.91463545  0.70825197  0.82749011     0.25700
C420        C  0.91866359  0.68564661  0.78790818    -0.12000
C421        C  0.89549683  0.67182843  0.73909530    -0.26000
C422        C  0.86806389  0.67923123  0.73173148     0.36500
C423        C  0.88308362  0.74311941  0.86023845     0.06100
F424        F  0.93746460  0.72209079  0.87373209    -0.19700
H425        H  0.93997541  0.68047322  0.79495252     0.15900
F426        F  0.84496207  0.66470907  0.68622556    -0.23500
H427        H  0.84291476  0.70881621  0.76432666     0.17700
C428        C  0.87099861  0.79203063  0.85314275     0.25700
C429        C  0.86919851  0.81628931  0.89471941    -0.12000
C430        C  0.87900080  0.79168825  0.94357438    -0.26000
C431        C  0.89047680  0.74201557  0.94961128     0.36600
C432        C  0.89248328  0.71841039  0.90847389    -0.27600
F433        F  0.86197394  0.81697909  0.80677502    -0.19800
H434        H  0.86056985  0.85450173  0.88898237     0.15900
F435        F  0.90099430  0.71662150  0.99609307    -0.23500
H436        H  0.90186976  0.68077180  0.91457839     0.17700
C437        C  0.87478229  0.81002299  0.28926915    -0.27500
C438        C  0.89480260  0.77696211  0.32697613     0.06100
C439        C  0.92011186  0.76784592  0.32624735     0.25700
C440        C  0.92457688  0.78931067  0.28700864    -0.12000
C441        C  0.90387990  0.81998444  0.24746200    -0.26000
C442        C  0.87918794  0.83134452  0.24978320     0.36500
C443        C  0.88878099  0.75022802  0.36538159     0.06100
F444        F  0.94038660  0.73748775  0.36305213    -0.19700
H445        H  0.94376296  0.77988121  0.28620259     0.15900
F446        F  0.85901493  0.86203548  0.21320891    -0.23500
H447        H  0.85517844  0.81777044  0.28911308     0.17700
C448        C  0.87966487  0.77712438  0.39632730     0.25700
C449        C  0.87540620  0.75141968  0.43399010    -0.12000
C450        C  0.87983393  0.69843228  0.44115466    -0.26000
C451        C  0.88819490  0.67138185  0.40916527     0.36600
C452        C  0.89251813  0.69709882  0.37164924    -0.27600
F453        F  0.87615822  0.82853395  0.39194673    -0.19800
H454        H  0.86932947  0.77323744  0.45861479     0.15900
F455        F  0.89391234  0.62067130  0.41630906    -0.23500
H456        H  0.89923524  0.67547445  0.34786598     0.17700
C457        C  0.73578859  0.05753385  0.95903150    -0.27500
C458        C  0.73939181  0.00571523  0.97363376     0.06100
C459        C  0.71686127  0.97935911  0.97332113     0.25700
C460        C  0.69145971  0.00432261  0.95880984    -0.12000
C461        C  0.68790149  0.05637128  0.94504750    -0.26000
C462        C  0.71034912  0.08277298  0.94499296     0.36500
C463        C  0.76716326  0.98048156  0.99241874     0.06100
F464        F  0.71972386  0.93009458  0.98946410    -0.19700
H465        H  0.67469220  0.98286806  0.95962402     0.15900
F466        F  0.70773356  0.13268836  0.93109880    -0.23500
H467        H  0.75281033  0.07860495  0.95875646     0.17700
C468        C  0.76945555  0.93139366  0.97473561     0.25700
C469        C  0.79579739  0.90775577  0.99490953    -0.12000
C470        C  0.82037185  0.93298684  0.03199423    -0.26000
C471        C  0.81810391  0.98223780  0.04912566     0.36600
C472        C  0.79176747  0.00546175  0.02969959    -0.27600
F473        F  0.74642415  0.90687274  0.93678729    -0.19800
H474        H  0.79706803  0.87025910  0.98031214     0.15900
F475        F  0.84129289  0.00772019  0.08534785    -0.23500
H476        H  0.79056686  0.04295437  0.04437646     0.17700
C477        C  0.97776979  0.92565843  0.96844136    -0.27500
C478        C  0.99809033  0.96380238  0.99367622     0.06100
C479        C  0.50872837  0.96974501  0.05299090     0.25700
C480        C  0.99566707  0.94897733  0.07431488    -0.12000
C481        C  0.97403529  0.91314504  0.04770688    -0.26000
C482        C  0.96601972  0.90034642  0.99501199     0.36500
C483        C  0.50988192  0.00299146  0.97193795     0.06100
F484        F  0.53364270  0.99293974  0.08534996    -0.19700
H485        H  0.50371823  0.94311452  0.11793783     0.15900
F486        F  0.94537347  0.86555802  0.96785522    -0.23500
H487        H  0.96979698  0.91712517  0.92700563     0.17700
C488        C  0.51196640  0.98258699  0.92895442     0.25700
C489        C  0.52301662  0.01179733  0.90327414    -0.12000
C490        C  0.53324889  0.06112411  0.92100373    -0.26000
C491        C  0.53099590  0.08198116  0.96352988     0.36600
C492        C  0.51903849  0.05336072  0.98824838    -0.27600
F493        F  0.01519328  0.91745508  0.92413104    -0.19800
H494        H  0.52534936  0.99450406  0.87169312     0.15900
F495        F  0.54084076  0.12964094  0.98168473    -0.23500
H496        H  0.51710378  0.07045392  0.02036136     0.17700
C497        C  0.50122003  0.82063767  0.67473805    -0.27500
C498        C  0.49869392  0.85355915  0.71050026     0.06100
C499        C  0.97557728  0.84182855  0.71630843     0.25700
C500        C  0.95498461  0.80422237  0.69127445    -0.12000
C501        C  0.95739726  0.76861311  0.65751789    -0.26000
C502        C  0.97954954  0.77353023  0.64591365     0.36500
C503        C  0.52139728  0.89089988  0.74180578     0.06100
F504        F  0.97302248  0.87505217  0.74975128    -0.19700
H505        H  0.93805322  0.80117175  0.70059381     0.15900
F506        F  0.48536198  0.74897320  0.61697301    -0.23500
H507        H  0.51899761  0.82391170  0.66786708     0.17700
C508        C  0.53288288  0.89450398  0.79691772     0.25700
C509        C  0.55288890  0.93195475  0.82567795    -0.12000
C510        C  0.56177170  0.96680513  0.80017795    -0.26000
C511        C  0.55201980  0.96040553  0.74569138     0.36600
C512        C  0.53201100  0.92281398  0.71692434    -0.27600
F513        F  0.52454222  0.86214572  0.82299069    -0.19800
H514        H  0.56029486  0.93527738  0.86763361     0.15900
F515        F  0.56092781  0.99171524  0.71972261    -0.23500
H516        H  0.52400183  0.91993133  0.67473323     0.17700
C517        C  0.53582017  0.35445708  0.77999279    -0.27500
C518        C  0.50908624  0.35103910  0.77596811     0.06100
C519        C  0.99184316  0.29802826  0.77387152     0.25700
C520        C  0.52210249  0.26955593  0.82043648    -0.12000
C521        C  0.54849031  0.27134118  0.82238193    -0.26000
C522        C  0.55555002  0.31507109  0.80336262     0.36500
C523        C  0.97701147  0.38080684  0.72458335     0.06100
F524        F  0.96589226  0.29310259  0.76920910    -0.19700
H525        H  0.51606971  0.23661712  0.83503108     0.15900
F526        F  0.58074594  0.31861167  0.80462489    -0.23500
H527        H  0.54107572  0.38705543  0.76368467     0.17700
C528        C  0.96881389  0.41566234  0.75142039     0.25700
C529        C  0.95072697  0.45627721  0.72413220    -0.12000
C530        C  0.94012848  0.46244656  0.66941115    -0.26000
C531        C  0.94686718  0.42505545  0.64218080     0.36600
C532        C  0.96539148  0.38516555  0.66974128    -0.27600
F533        F  0.49530687  0.43023710  0.82686838    -0.19800
H534        H  0.94597890  0.48415349  0.74633015     0.15900
F535        F  0.93688632  0.42836963  0.58935935    -0.23500
H536        H  0.97120531  0.35813447  0.64836233     0.20900
C537        C  0.63107159  0.22201738  0.58659679    -0.27500
C538        C  0.62094893  0.24920271  0.61556823     0.06100
C539        C  0.61536469  0.30162966  0.60614002     0.25700
C540        C  0.61928100  0.32614919  0.56738409    -0.12000
C541        C  0.62810534  0.29852946  0.53640556    -0.26000
C542        C  0.63440837  0.24619038  0.54705311     0.36500
C543        C  0.61673905  0.22300040  0.65627758     0.06100
F544        F  0.60552954  0.32878282  0.63366143    -0.19700
H545        H  0.61403466  0.36626149  0.55979242     0.15900
F546        F  0.64340900  0.21817434  0.51871262    -0.23500
H547        H  0.63584187  0.18171799  0.59392774     0.17700
C548        C  0.59012263  0.20451502  0.64493207     0.25700
C549        C  0.58624241  0.18208167  0.68475113    -0.12000
C550        C  0.60886462  0.17758647  0.73655487    -0.26000
C551        C  0.63571489  0.19526102  0.74716861     0.36600
C552        C  0.63945499  0.21757599  0.70735702    -0.27600
F553        F  0.56783189  0.20885053  0.59551683    -0.19800
H554        H  0.56539883  0.16911008  0.67524635     0.15900
F555        F  0.65830366  0.19295201  0.79648033    -0.23500
H556        H  0.66008642  0.23170186  0.71669557     0.17700
C557        C  0.58871533  0.25900582  0.15412443    -0.27500
C558        C  0.61388969  0.27083392  0.15413644     0.06100
C559        C  0.63220738  0.30715782  0.19050876     0.25700
C560        C  0.62616116  0.32870093  0.22806432    -0.12000
C561        C  0.60156290  0.31515310  0.22955790    -0.26000
C562        C  0.58249911  0.28094278  0.19125926     0.36500
C563        C  0.62093867  0.24445141  0.11666049     0.06100
F564        F  0.65662904  0.31989403  0.19151842    -0.19700
H565        H  0.64118328  0.35494182  0.25709738     0.15900
F566        F  0.55872291  0.26613148  0.19166153    -0.23500
H567        H  0.57402369  0.23189850  0.12577885     0.17700
C568        C  0.61949419  0.19087725  0.11173599     0.25700
C569        C  0.62385010  0.16654867  0.07329755    -0.12000
C570        C  0.62950025  0.19515598  0.03877367    -0.26000
C571        C  0.63240313  0.24857091  0.04559084     0.36600
C572        C  0.62818737  0.27280962  0.08420062    -0.27600
F573        F  0.61339444  0.16206130  0.14355246    -0.19800
H574        H  0.62135619  0.12551925  0.06881426     0.15900
F575        F  0.63841605  0.27767291  0.01382054    -0.23500
H576        H  0.62948630  0.31403696  0.08731002     0.17700
C577        C  0.97185519  0.10126816  0.18860093    -0.27500
C578        C  0.99275444  0.09373842  0.24126185     0.06100
C579        C  0.99360911  0.04778736  0.26626402     0.25700
C580        C  0.97438788  0.00909037  0.23832890    -0.12000
C581        C  0.95400465  0.01528950  0.18467715    -0.26000
C582        C  0.95255087  0.06237417  0.16035814     0.36500
C583        C  0.51278062  0.12823166  0.27456994     0.06100
F584        F  0.50642066  0.03869974  0.32264924    -0.19700
H585        H  0.97632467  0.97332651  0.25837154     0.15900
F586        F  0.93288524  0.07055477  0.10928259    -0.23500
H587        H  0.97080122  0.13705587  0.16920105     0.17700
C588        C  0.53674194  0.13413040  0.26866291     0.25700
C589        C  0.55525699  0.17494768  0.29319088    -0.12000
C590        C  0.54983930  0.21084061  0.32319915    -0.26000
C591        C  0.52651477  0.20326841  0.33112314     0.36600
C592        C  0.50829339  0.16207473  0.30719622    -0.27600
F593        F  0.04273134  0.10549237  0.23406335    -0.19800
H594        H  0.57289074  0.18014594  0.28614507     0.15900
F595        F  0.52077009  0.23668929  0.36050919    -0.23500
H596        H  0.49000195  0.15771144  0.31239498     0.17700
C597        C  0.97109544  0.64130186  0.22257555    -0.27500
C598        C  0.48999752  0.63036856  0.20239342     0.06100
C599        C  0.99574225  0.66099106  0.17432412     0.25700
C600        C  0.97663287  0.70014786  0.14817697    -0.12000
C601        C  0.95489143  0.71097164  0.15950004    -0.26000
C602        C  0.95177491  0.68040383  0.19604026     0.36500
C603        C  0.51203252  0.59240481  0.23376760     0.06100
F604        F  0.01731459  0.65333273  0.16417692    -0.19700
H605        H  0.97947706  0.72340480  0.12039075     0.15900
F606        F  0.93134261  0.69048256  0.20879387    -0.23500
H607        H  0.46450695  0.61385699  0.23890956     0.17700
C608        C  0.52475204  0.59164137  0.28916765     0.25700
C609        C  0.54450901  0.55398320  0.31811836    -0.12000
C610        C  0.55184182  0.51630757  0.29234892    -0.26000
C611        C  0.54011813  0.51885585  0.23701245     0.36600
C612        C  0.52037265  0.55644282  0.20820915    -0.27600
F613        F  0.51786643  0.62698800  0.31530021    -0.19800
H614        H  0.55305526  0.55298585  0.36049779     0.15900
F615        F  0.54674732  0.48382185  0.21021705    -0.23500
H616        H  0.01089274  0.55526780  0.17319379     0.17700
C617        C  0.76315964  0.56729931  0.46932925    -0.27500
C618        C  0.76119690  0.51804344  0.48653695     0.06100
C619        C  0.78613016  0.49315526  0.52277159     0.25700
C620        C  0.81229030  0.51625819  0.54000693    -0.12000
C621        C  0.81435680  0.56510885  0.52246721    -0.26000
C622        C  0.78946536  0.59086975  0.48737263     0.36500
C623        C  0.73338205  0.49245543  0.46705828     0.06100
F624        F  0.78525007  0.44669729  0.54240107    -0.19700
H625        H  0.83108929  0.49581343  0.56750991     0.15900
F626        F  0.79057217  0.63779233  0.46885680    -0.23500
H627        H  0.74435229  0.58716170  0.44105117     0.17700
C628        C  0.71048574  0.51829831  0.46620222     0.25700
C629        C  0.68511730  0.49264619  0.45105765    -0.12000
C630        C  0.68198214  0.44055338  0.43687258    -0.26000
C631        C  0.70464707  0.41506398  0.43649340     0.36600
C632        C  0.72992022  0.44092243  0.45102909    -0.27600
F633        F  0.71293033  0.56774444  0.48211277    -0.19800
H634        H  0.66808522  0.51345714  0.45176249     0.15900
F635        F  0.70242018  0.36528451  0.42182052    -0.23500
H636        H  0.74695794  0.42042670  0.45003844     0.17700
C637        C  0.49492497  0.55049175  0.50555197    -0.27500
C638        C  0.99497793  0.50441943  0.50226400     0.06100
C639        C  0.99123660  0.48171543  0.54237256     0.25700
C640        C  0.98043584  0.50995582  0.56919796    -0.12000
C641        C  0.97165902  0.56036376  0.55483539    -0.26000
C642        C  0.97542542  0.58355324  0.51522453     0.36500
C643        C  0.50639271  0.46553382  0.48029431     0.06100
F644        F  0.99638996  0.43130471  0.55366840    -0.19700
H645        H  0.97685873  0.49110252  0.59848826     0.15900
F646        F  0.48098038  0.63094490  0.52377263    -0.23500
H647        H  0.49996999  0.56911122  0.47801986     0.17700
C648        C  0.49605071  0.47418963  0.42592208     0.25700
C649        C  0.50778597  0.44822633  0.39890672    -0.12000
C650        C  0.52952362  0.41272281  0.42555036    -0.26000
C651        C  0.53756685  0.40039034  0.47818808     0.36600
C652        C  0.52663951  0.42733091  0.50541295    -0.27600
F653        F  0.47522315  0.50866682  0.39932408    -0.19800
H654        H  0.50117634  0.45827360  0.35836301     0.15900
F655        F  0.55753173  0.36448101  0.50465495    -0.23500
H656        H  0.53516161  0.41979287  0.54709138     0.17700
loop_ 
_geom_bond_atom_site_label_1 
_geom_bond_atom_site_label_2 
_geom_bond_distance 
_geom_bond_site_symmetry_2 
_ccdc_geom_bond_type 
O1          Cr19   1.954       .  S
O1            C9   1.255       .  A
O2          Cr19   2.035       .  S
O2            C3   1.273       .  A
C3            O4   1.256       .  A
C3          C262   1.477       .  S
O4          Cr20   1.956       .  S
O5          Cr20   2.042       .  S
O5            C6   1.269       .  A
C6            O7   1.251       .  A
C6          C322   1.479       .  S
O7          Cr21   1.945       .  S
O8          Cr21   2.026       .  S
O8            C9   1.270       .  A
C9          C213   1.488       .  S
O10         Cr19   2.032       .  S
O10          C18   1.273       .  A
O11         Cr19   1.961       .  S
O11          C12   1.258       .  A
C12          O13   1.272       .  A
C12         C233   1.483       .  S
O13         Cr20   2.030       .  S
O14         Cr20   1.951       .  S
O14          C15   1.255       .  A
C15          O16   1.273       .  A
C15         C282   1.481       .  S
O16         Cr21   2.037       .  S
O17         Cr21   1.960       .  S
O17          C18   1.258       .  A
C18         C302   1.486       .  S
Cr19         O22   1.761       .  S
Cr20         O22   1.761       .  S
Cr21         O22   1.760       .  S
O23         Cr41   2.020       .  S
O23          C31   1.267       .  A
O24         Cr41   1.957       .  S
O24          C25   1.252       .  A
C25          O26   1.271       .  A
C25         C162   1.464       .  S
O26         Cr42   2.040       .  S
O27         Cr42   1.959       .  S
O27          C28   1.257       .  A
C28          O29   1.276       .  A
C28         C193   1.490       .  S
O29         Cr43   2.047       .  S
O30         Cr43   1.957       .  S
O30          C31   1.254       .  A
C31         C242   1.485   1_556  S
O32         Cr41   1.949       .  S
O32          C40   1.257       .  A
O33         Cr41   2.029       .  S
O33          C34   1.272       .  A
C34          O35   1.259       .  A
C34         C182   1.484   1_545  S
O35         Cr42   1.968       .  S
O36         Cr42   2.039       .  S
O36          C37   1.273       .  A
C37          O38   1.254       .  A
C37         C222   1.488       .  S
O38         Cr43   1.954       .  S
O39         Cr43   2.045       .  S
O39          C40   1.277       .  A
C40         C133   1.487       .  S
Cr41         O44   1.760       .  S
Cr42         O44   1.764       .  S
Cr43         O44   1.759       .  S
O45         Cr63   2.019       .  S
O45          C53   1.269       .  A
O46         Cr63   1.961       .  S
O46          C47   1.252       .  A
C47          O48   1.267       .  A
C47         C313   1.462       .  S
O48         Cr64   2.030       .  S
O49         Cr64   1.966       .  S
O49          C50   1.258       .  A
C50          O51   1.270       .  A
C50         C173   1.475       .  S
O51         Cr65   2.029       .  S
O52         Cr65   1.959       .  S
O52          C53   1.256       .  A
C53         C122   1.483       .  S
O54         Cr63   1.966       .  S
O54          C62   1.259       .  A
O55         Cr63   2.027       .  S
O55          C56   1.272       .  A
C56          O57   1.262       .  A
C56         C202   1.488       .  S
O57         Cr64   1.971       .  S
O58         Cr64   2.034       .  S
O58          C59   1.273       .  A
C59          O60   1.258       .  A
C59          C93   1.485       .  S
O60         Cr65   1.961       .  S
O61         Cr65   2.032       .  S
O61          C62   1.272       .  A
C62         C293   1.487       .  S
Cr63         O66   1.758       .  S
Cr64         O66   1.764       .  S
Cr65         O66   1.764       .  S
O67         Cr85   1.948       .  S
O67          C75   1.256   1_554  A
O68         Cr85   2.028       .  S
O68          C69   1.269       .  A
C69          O70   1.257       .  A
C69         C273   1.474       .  S
O70         Cr86   1.963       .  S
O71         Cr86   2.049       .  S
O71          C72   1.271       .  A
C72          O73   1.250       .  A
C72         C153   1.488       .  S
O73         Cr87   1.946       .  S
O74         Cr87   2.031   1_556  S
O74          C75   1.273       .  A
C75         C102   1.488       .  S
O76         Cr85   2.029       .  S
O76          C84   1.270       .  A
O77         Cr85   1.965       .  S
O77          C78   1.262       .  A
C78          O79   1.276       .  A
C78         C113   1.485       .  S
O79         Cr86   2.038       .  S
O80         Cr86   1.955       .  S
O80          C81   1.257       .  A
C81          O82   1.275       .  A
C81         C253   1.489   1_565  S
O82         Cr87   2.041       .  S
O83         Cr87   1.969       .  S
O83          C84   1.258       .  A
C84         C142   1.489       .  S
Cr85         O88   1.767       .  S
Cr86         O88   1.761       .  S
Cr87         O88   1.758       .  S
C89          C90   1.398       .  A
C89          C94   1.397       .  A
C89          H99   1.083       .  S
C90          C95   1.474       .  S
C90          C91   1.404       .  A
C91          C92   1.401       .  A
C91          F96   1.358       .  S
C92          C93   1.407       .  A
C92          H97   1.083       .  S
C93          C94   1.413       .  A
C94          F98   1.357       .  S
C95         C100   1.406       .  A
C95         C104   1.394       .  A
C100        C101   1.405       .  A
C100        F105   1.357       .  S
C101        C102   1.408       .  A
C101        H106   1.083       .  S
C102        C103   1.416       .  A
C103        C104   1.392       .  A
C103        F107   1.358       .  S
C104        H108   1.084       .  S
C109        C110   1.401       .  A
C109        C114   1.399       .  A
C109        H119   1.084       .  S
C110        C115   1.479       .  S
C110        C111   1.405       .  A
C111        C112   1.400       .  A
C111        F116   1.357       .  S
C112        C113   1.407       .  A
C112        H117   1.084       .  S
C113        C114   1.412       .  A
C114        F118   1.357       .  S
C115        C120   1.402       .  A
C115        C124   1.404       .  A
C120        C121   1.396       .  A
C120        F125   1.358       .  S
C121        C122   1.409       .  A
C121        H126   1.083       .  S
C122        C123   1.409       .  A
C123        C124   1.401       .  A
C123        F127   1.357       .  S
C124        H128   1.083       .  S
C129        C130   1.410       .  A
C129        C134   1.406       .  A
C129        H139   1.083       .  S
C130        C135   1.492   1_545  S
C130        C131   1.405   1_545  A
C131        C132   1.396   1_565  A
C131        F136   1.358   1_556  S
C132        C133   1.408       .  A
C132        H137   1.083   1_545  S
C133        C134   1.406       .  A
C134        F138   1.357       .  S
C135        C140   1.411       .  A
C135        C144   1.404   1_566  A
C140        C141   1.402   1_556  A
C140        F145   1.358       .  S
C141        C142   1.406       .  A
C141        H146   1.083   1_554  S
C142        C143   1.411       .  A
C143        C144   1.400   1_565  A
C143        F147   1.357   1_565  S
C144        H148   1.083       .  S
C149        C150   1.400       .  A
C149        C154   1.391       .  A
C149        H159   1.083       .  S
C150        C483   1.490   1_565  S
C150        C479   1.412   1_556  A
C151        C478   1.412   1_454  A
C151        C480   1.404   1_455  A
C151        F156   1.358   1_565  S
C152        C153   1.406       .  A
C152        C479   1.407       .  A
C152        H485   1.083       .  S
C153        C154   1.413   1_554  A
C154        F158   1.358       .  S
C155        C478   1.486   1_455  S
C155        C160   1.409       .  A
C155        C164   1.407   1_565  A
H157        C480   1.083   1_455  S
C160        C161   1.395       .  A
C160        F493   1.358       .  S
C161        C162   1.400   1_565  A
C161        H166   1.081       .  S
C162        C163   1.404       .  A
C163        C164   1.400       .  A
C163        F167   1.358       .  S
C164        H168   1.083       .  S
F165        C488   1.357       .  S
C169        C170   1.402   1_455  A
C169        C502   1.396   1_455  A
C169        H179   1.083       .  S
C170        C175   1.482   1_655  S
C170        C499   1.410       .  A
C171        C172   1.399       .  A
C171        C498   1.410       .  A
C171        F176   1.358       .  S
C172        C173   1.402       .  A
C172        H177   1.083       .  S
C173        C174   1.407       .  A
C174        C497   1.398       .  A
C174        F506   1.358       .  S
C175        C180   1.406       .  A
C175        C184   1.403       .  A
F178        C502   1.358       .  S
C180        C181   1.396       .  A
C180        F185   1.358       .  S
C181        C182   1.406       .  A
C181        H186   1.083       .  S
C182        C183   1.411       .  A
C183        C184   1.399       .  A
C183        F187   1.357       .  S
C184        H188   1.083       .  S
C189        C190   1.405   1_455  A
C189        C194   1.404       .  A
C189        H199   1.083       .  S
C190        C523   1.483       .  S
C190        C519   1.402       .  A
C191        C518   1.399       .  A
C191        C520   1.395       .  A
C191        F196   1.358       .  S
C192        C193   1.412       .  A
C192        C519   1.400   1_455  A
C192        H197   1.083       .  S
C193        C194   1.408       .  A
C194        F198   1.357       .  S
C195        C518   1.474       .  S
C195        C200   1.401       .  A
C195        C204   1.400       .  A
C200        C201   1.400       .  A
C200        F533   1.357       .  S
C201        C202   1.410       .  A
C201        H206   1.083       .  S
C202        C203   1.412       .  A
C203        C204   1.399       .  A
C203        F207   1.357       .  S
C204        H208   1.083       .  S
F205        C528   1.357       .  S
C209        C210   1.397       .  A
C209        C214   1.394       .  A
C209        H219   1.084       .  S
C210        C215   1.479       .  S
C210        C211   1.407       .  A
C211        C212   1.404       .  A
C211        F216   1.357       .  S
C212        C213   1.407       .  A
C212        H217   1.083       .  S
C213        C214   1.415       .  A
C214        F218   1.358       .  S
C215        C220   1.407       .  A
C215        C224   1.398       .  A
C220        C221   1.401       .  A
C220        F225   1.357       .  S
C221        C222   1.405       .  A
C221        H226   1.083       .  S
C222        C223   1.416       .  A
C223        C224   1.397       .  A
C223        F227   1.358       .  S
C224        H228   1.084       .  S
C229        C230   1.405       .  A
C229        C234   1.400       .  A
C229        H239   1.083       .  S
C230        C235   1.480       .  S
C230        C231   1.403       .  A
C231        C232   1.397       .  A
C231        F236   1.358       .  S
C232        C233   1.409       .  A
C232        H237   1.083       .  S
C233        C234   1.408       .  A
C234        F238   1.357       .  S
C235        C240   1.408       .  A
C235        C244   1.398       .  A
C240        C241   1.402       .  A
C240        F245   1.358       .  S
C241        C242   1.406       .  A
C241        H246   1.083       .  S
C242        C243   1.413       .  A
C243        C244   1.394       .  A
C243        F247   1.358   1_554  S
C244        H248   1.083       .  S
C249        C250   1.403       .  A
C249        C254   1.401       .  A
C249        H259   1.083       .  S
C250        C583   1.477       .  S
C250        C251   1.400       .  A
C251        C252   1.399       .  A
C251        F584   1.358       .  S
C252        C253   1.413       .  A
C252        H257   1.083   1_545  S
C253        C254   1.409       .  A
C254        F258   1.357       .  S
C255        C578   1.473   1_455  S
C255        C260   1.405       .  A
C255        C264   1.399       .  A
F256        C579   1.358   1_455  S
C260        C261   1.400       .  A
C260        F593   1.357       .  S
C261        C262   1.405       .  A
C261        H266   1.084       .  S
C262        C263   1.411       .  A
C263        C264   1.396       .  A
C263        F267   1.358       .  S
C264        H268   1.084   1_455  S
F265        C588   1.357       .  S
C269        C274   1.399       .  A
C269        C598   1.406       .  A
C269        H607   1.083       .  S
C270        C275   1.479   1_655  S
C270        C597   1.405       .  A
C270        C599   1.405       .  A
C271        C272   1.395       .  A
C271        C598   1.405       .  A
C271        F276   1.357       .  S
C272        C273   1.404       .  A
C272        H277   1.083       .  S
C273        C274   1.407       .  A
C274        F278   1.358       .  S
C275        C280   1.406       .  A
C275        C284   1.400       .  A
H279        C597   1.083       .  S
C280        C281   1.400       .  A
C280        F285   1.357       .  S
C281        C282   1.406       .  A
C281        H286   1.083       .  S
C282        C283   1.412       .  A
C283        C284   1.393       .  A
C283        F287   1.358       .  S
C284        H616   1.083       .  S
H288        C612   1.083       .  S
C289        C290   1.408       .  A
C289        C294   1.403       .  A
C289        H299   1.083       .  S
C290        C295   1.492       .  S
C290        C291   1.407       .  A
C291        C292   1.398       .  A
C291        F296   1.358       .  S
C292        C293   1.407       .  A
C292        H297   1.083       .  S
C293        C294   1.408       .  A
C294        F298   1.357       .  S
C295        C300   1.407       .  A
C295        C304   1.408       .  A
C300        C301   1.399       .  A
C300        F305   1.358       .  S
C301        C302   1.408       .  A
C301        H306   1.083       .  S
C302        C303   1.406       .  A
C303        C304   1.402       .  A
C303        F307   1.357       .  S
C304        H308   1.083       .  S
C309        C638   1.408       .  A
C309        C642   1.400       .  A
C309        H319   1.082       .  S
C310        C643   1.486       .  S
C310        C311   1.410       .  A
C310        C637   1.408       .  A
C311        C312   1.394       .  A
C311        F316   1.358       .  S
C312        C313   1.399       .  A
C312        H317   1.082       .  S
C313        C314   1.402       .  A
C314        C637   1.399       .  A
C314        F646   1.357       .  S
C315        C638   1.489   1_455  S
C315        C320   1.413   1_455  A
C315        C324   1.402       .  A
F318        C642   1.358       .  S
C320        C321   1.404   1_655  A
C320        F325   1.357       .  S
C321        C322   1.405       .  A
C321        H326   1.083       .  S
C322        C323   1.409       .  A
C323        C324   1.388       .  A
C323        F327   1.358       .  S
C324        H328   1.082       .  S
O329       Cr347   1.970       .  S
O329        C337   1.258       .  A
O330       Cr347   2.037       .  S
O330        C331   1.273       .  A
C331        O332   1.256       .  A
C331        C590   1.479       .  S
O332       Cr348   1.957       .  S
O333       Cr348   2.042       .  S
O333        C334   1.270       .  A
C334        O335   1.251       .  A
C334        C650   1.475       .  S
O335       Cr349   1.944       .  S
O336       Cr349   2.019       .  S
O336        C337   1.269       .  A
C337        C541   1.487       .  S
O338       Cr347   2.034       .  S
O338        C346   1.274       .  A
O339       Cr347   1.969       .  S
O339        C340   1.259       .  A
C340        O341   1.272       .  A
C340        C561   1.482       .  S
O341       Cr348   2.031       .  S
O342       Cr348   1.957       .  S
O342        C343   1.257       .  A
C343        O344   1.272       .  A
C343        C610   1.481       .  S
O344       Cr349   2.030       .  S
O345       Cr349   1.959       .  S
O345        C346   1.258       .  A
C346        C630   1.488       .  S
Cr347       O350   1.763       .  S
Cr348       O350   1.762       .  S
Cr349       O350   1.758       .  S
O351       Cr369   2.016       .  S
O351        C359   1.267       .  A
O352       Cr369   1.962       .  S
O352        C353   1.252       .  A
C353        O354   1.272       .  A
C353        C490   1.473       .  S
O354       Cr370   2.043       .  S
O355       Cr370   1.951       .  S
O355        C356   1.256       .  A
C356        O357   1.274       .  A
C356        C521   1.483       .  S
O357       Cr371   2.039       .  S
O358       Cr371   1.962       .  S
O358        C359   1.255       .  A
C359        C570   1.482   1_556  S
O360       Cr369   1.950       .  S
O360        C368   1.257       .  A
O361       Cr369   2.031       .  S
O361        C362   1.272       .  A
C362        O363   1.259       .  A
C362        C510   1.484   1_545  S
O363       Cr370   1.967       .  S
O364       Cr370   2.043       .  S
O364        C365   1.274       .  A
C365        O366   1.256       .  A
C365        C550   1.494       .  S
O366       Cr371   1.962       .  S
O367       Cr371   2.036       .  S
O367        C368   1.275       .  A
C368        C461   1.485       .  S
Cr369       O372   1.761       .  S
Cr370       O372   1.760       .  S
Cr371       O372   1.765       .  S
O373       Cr391   2.018       .  S
O373        C381   1.269       .  A
O374       Cr391   1.961       .  S
O374        C375   1.252       .  A
C375        O376   1.269       .  A
C375        C641   1.465       .  S
O376       Cr392   2.029       .  S
O377       Cr392   1.959       .  S
O377        C378   1.256       .  A
C378        O379   1.270       .  A
C378        C501   1.473       .  S
O379       Cr393   2.028       .  S
O380       Cr393   1.964       .  S
O380        C381   1.256       .  A
C381        C450   1.481       .  S
O382       Cr391   1.963       .  S
O382        C390   1.259       .  A
O383       Cr391   2.034       .  S
O383        C384   1.273       .  A
C384        O385   1.261       .  A
C384        C530   1.493       .  S
O385       Cr392   1.973       .  S
O386       Cr392   2.032       .  S
O386        C387   1.273       .  A
C387        O388   1.259       .  A
C387        C421   1.488       .  S
O388       Cr393   1.966       .  S
O389       Cr393   2.032       .  S
O389        C390   1.272       .  A
C390        C621   1.483       .  S
Cr391       O394   1.757       .  S
Cr392       O394   1.762       .  S
Cr393       O394   1.768       .  S
O395       Cr413   1.951       .  S
O395        C403   1.257   1_554  A
O396       Cr413   2.024       .  S
O396        C397   1.267       .  A
C397        O398   1.257       .  A
C397        C601   1.471       .  S
O398       Cr414   1.963       .  S
O399       Cr414   2.043       .  S
O399        C400   1.270       .  A
C400        O401   1.250       .  A
C400        C481   1.478       .  S
O401       Cr415   1.943       .  S
O402       Cr415   2.036   1_556  S
O402        C403   1.275       .  A
C403        C430   1.490       .  S
O404       Cr413   2.021       .  S
O404        C412   1.268       .  A
O405       Cr413   1.969       .  S
O405        C406   1.262       .  A
C406        O407   1.274       .  A
C406        C441   1.481       .  S
O407       Cr414   2.030       .  S
O408       Cr414   1.949       .  S
O408        C409   1.255       .  A
C409        O410   1.275       .  A
C409        C581   1.486   1_565  S
O410       Cr415   2.044       .  S
O411       Cr415   1.968       .  S
O411        C412   1.257       .  A
C412        C470   1.479       .  S
Cr413       O416   1.765       .  S
Cr414       O416   1.758       .  S
Cr415       O416   1.758       .  S
C417        C418   1.400       .  A
C417        C422   1.400       .  A
C417        H427   1.083       .  S
C418        C423   1.480       .  S
C418        C419   1.406       .  A
C419        C420   1.400       .  A
C419        F424   1.358       .  S
C420        C421   1.406       .  A
C420        H425   1.083       .  S
C421        C422   1.414       .  A
C422        F426   1.358       .  S
C423        C428   1.408       .  A
C423        C432   1.396       .  A
C428        C429   1.407       .  A
C428        F433   1.357       .  S
C429        C430   1.407       .  A
C429        H434   1.083       .  S
C430        C431   1.416       .  A
C431        C432   1.393       .  A
C431        F435   1.358       .  S
C432        H436   1.084       .  S
C437        C438   1.405       .  A
C437        C442   1.400       .  A
C437        H447   1.083       .  S
C438        C443   1.486       .  S
C438        C439   1.408       .  A
C439        C440   1.397       .  A
C439        F444   1.357       .  S
C440        C441   1.404       .  A
C440        H445   1.084       .  S
C441        C442   1.409       .  A
C442        F446   1.358       .  S
C443        C448   1.407       .  A
C443        C452   1.406       .  A
C448        C449   1.400       .  A
C448        F453   1.358       .  S
C449        C450   1.407       .  A
C449        H454   1.083       .  S
C450        C451   1.406       .  A
C451        C452   1.398       .  A
C451        F455   1.357       .  S
C452        H456   1.083       .  S
C457        C458   1.409       .  A
C457        C462   1.402       .  A
C457        H467   1.083       .  S
C458        C463   1.487   1_545  S
C458        C459   1.405   1_545  A
C459        C460   1.395   1_565  A
C459        F464   1.358       .  S
C460        C461   1.409       .  A
C460        H465   1.083   1_545  S
C461        C462   1.406       .  A
C462        F466   1.357       .  S
C463        C468   1.410       .  A
C463        C472   1.404   1_566  A
C468        C469   1.400       .  A
C468        F473   1.358       .  S
C469        C470   1.405   1_556  A
C469        H474   1.083       .  S
C470        C471   1.407       .  A
C471        C472   1.397   1_565  A
C471        F475   1.357   1_565  S
C472        H476   1.083       .  S
C477        C478   1.401       .  A
C477        C482   1.391       .  A
C477        H487   1.083       .  S
C479        F484   1.357       .  S
C480        C481   1.404       .  A
C481        C482   1.410   1_554  A
C482        F486   1.358       .  S
C483        C488   1.410   1_545  A
C483        C492   1.407       .  A
C488        C489   1.397   1_565  A
C489        C490   1.400       .  A
C489        H494   1.083   1_545  S
C490        C491   1.407       .  A
C491        C492   1.402       .  A
C491        F495   1.358       .  S
C492        H496   1.083   1_556  S
C497        C498   1.404       .  A
C497        H507   1.083       .  S
C498        C503   1.486       .  S
C499        C500   1.398       .  A
C499        F504   1.358       .  S
C500        C501   1.402       .  A
C500        H505   1.083       .  S
C501        C502   1.408       .  A
C503        C508   1.407       .  A
C503        C512   1.404       .  A
C508        C509   1.397       .  A
C508        F513   1.358       .  S
C509        C510   1.405       .  A
C509        H514   1.083       .  S
C510        C511   1.410       .  A
C511        C512   1.400       .  A
C511        F515   1.358       .  S
C512        H516   1.083       .  S
C517        C518   1.405       .  A
C517        C522   1.402       .  A
C517        H527   1.083       .  S
C519        F524   1.358       .  S
C520        C521   1.410       .  A
C520        H525   1.083       .  S
C521        C522   1.408       .  A
C522        F526   1.357       .  S
C523        C528   1.404       .  A
C523        C532   1.402       .  A
C528        C529   1.403       .  A
C529        C530   1.410       .  A
C529        H534   1.083       .  S
C530        C531   1.412       .  A
C531        C532   1.401       .  A
C531        F535   1.357       .  S
C532        H536   1.083       .  S
C537        C538   1.401       .  A
C537        C542   1.402       .  A
C537        H547   1.084       .  S
C538        C543   1.482       .  S
C538        C539   1.405       .  A
C539        C540   1.403       .  A
C539        F544   1.357       .  S
C540        C541   1.406       .  A
C540        H545   1.083       .  S
C541        C542   1.411       .  A
C542        F546   1.357       .  S
C543        C548   1.406       .  A
C543        C552   1.398       .  A
C548        C549   1.405       .  A
C548        F553   1.357       .  S
C549        C550   1.408       .  A
C549        H554   1.083       .  S
C550        C551   1.416       .  A
C551        C552   1.399       .  A
C551        F555   1.358       .  S
C552        H556   1.084       .  S
C557        C558   1.405       .  A
C557        C562   1.399       .  A
C557        H567   1.083       .  S
C558        C563   1.486       .  S
C558        C559   1.407       .  A
C559        C560   1.400       .  A
C559        F564   1.357       .  S
C560        C561   1.407       .  A
C560        H565   1.083       .  S
C561        C562   1.408       .  A
C562        F566   1.357       .  S
C563        C568   1.408       .  A
C563        C572   1.403       .  A
C568        C569   1.400       .  A
C568        F573   1.357       .  S
C569        C570   1.404       .  A
C569        H574   1.083       .  S
C570        C571   1.411       .  A
C571        C572   1.399       .  A
C571        F575   1.358       .  S
C572        H576   1.083       .  S
C577        C578   1.404       .  A
C577        C582   1.403       .  A
C577        H587   1.083       .  S
C578        C579   1.398       .  A
C579        C580   1.395       .  A
C580        C581   1.412       .  A
C580        H585   1.083   1_545  S
C581        C582   1.407       .  A
C582        F586   1.357       .  S
C583        C588   1.405       .  A
C583        C592   1.400       .  A
C588        C589   1.400       .  A
C589        C590   1.404       .  A
C589        H594   1.084       .  S
C590        C591   1.411       .  A
C591        C592   1.398       .  A
C591        F595   1.358       .  S
C592        H596   1.084       .  S
C597        C602   1.399       .  A
C598        C603   1.480       .  S
C599        C600   1.393       .  A
C599        F604   1.357   1_655  S
C600        C601   1.402       .  A
C600        H605   1.084       .  S
C601        C602   1.408       .  A
C602        F606   1.358       .  S
C603        C608   1.407       .  A
C603        C612   1.402       .  A
C608        C609   1.398       .  A
C608        F613   1.358       .  S
C609        C610   1.406       .  A
C609        H614   1.083       .  S
C610        C611   1.411       .  A
C611        C612   1.396       .  A
C611        F615   1.358       .  S
C617        C618   1.409       .  A
C617        C622   1.404       .  A
C617        H627   1.083       .  S
C618        C623   1.491       .  S
C618        C619   1.407       .  A
C619        C620   1.396       .  A
C619        F624   1.357       .  S
C620        C621   1.405       .  A
C620        H625   1.083       .  S
C621        C622   1.407       .  A
C622        F626   1.357       .  S
C623        C628   1.406       .  A
C623        C632   1.408       .  A
C628        C629   1.399       .  A
C628        F633   1.358       .  S
C629        C630   1.410       .  A
C629        H634   1.083       .  S
C630        C631   1.406       .  A
C631        C632   1.401       .  A
C631        F635   1.357       .  S
C632        H636   1.083       .  S
C637        H647   1.083       .  S
C638        C639   1.411       .  A
C639        C640   1.393       .  A
C639        F644   1.357       .  S
C640        C641   1.398       .  A
C640        H645   1.083       .  S
C641        C642   1.405       .  A
C643        C648   1.412       .  A
C643        C652   1.401       .  A
C648        C649   1.403       .  A
C648        F653   1.357       .  S
C649        C650   1.403       .  A
C649        H654   1.083       .  S
C650        C651   1.408       .  A
C651        C652   1.389       .  A
C651        F655   1.357       .  S
C652        H656   1.083       .  S
