geometry optimzed in LAMMPS
_audit_creation_date              2020-12-01 
_audit_creation_method            'lammps2cif' 
_symmetry_space_group_name_H-M    'P1' 
_symmetry_Int_Tables_number       1 
_symmetry_cell_setting            triclinic 
loop_ 
_symmetry_equiv_pos_as_xyz 
  x,y,z 
_cell_length_a                    26.14107935 
_cell_length_b                    37.432063427019 
_cell_length_c                    25.77109178000468 
_cell_angle_alpha                 93.33632444991308 
_cell_angle_beta                  107.45708884329623 
_cell_angle_gamma                 87.69442697739022 
loop_ 
_atom_site_label 
_atom_site_type_symbol 
_atom_site_fract_x 
_atom_site_fract_y 
_atom_site_fract_z 
_atom_site_charge 
O1          O  0.54776834  0.84716209  0.22198246    -0.85900
O2          O  0.56125915  0.79288213  0.29171186    -0.82900
C3          C  0.55030960  0.76612897  0.25841953     0.97600
O4          O  0.58089173  0.75702986  0.22999301    -0.83000
O5          O  0.66578537  0.75897787  0.18529873    -0.85600
C6          C  0.65319557  0.77745391  0.14376002     1.02100
O7          O  0.63826678  0.80951336  0.14681716    -0.78400
O8          O  0.60321850  0.87107947  0.18519296    -0.78600
C9          C  0.55579893  0.86370832  0.18390299     1.02000
O10         O  0.63356463  0.88515387  0.29725912    -0.85900
O11         O  0.65573512  0.82465215  0.36147595    -0.83000
C12         C  0.66451008  0.79218669  0.37374601     0.97600
O13         O  0.65644753  0.76752244  0.33663041    -0.83000
O14         O  0.73572488  0.77613339  0.28954176    -0.85600
C15         C  0.76306004  0.79064606  0.26401440     1.02100
O16         O  0.74145233  0.81317253  0.22837593    -0.78400
O17         O  0.70528932  0.87431227  0.27193959    -0.78600
C18         C  0.67766234  0.89524925  0.29315853     1.02000
Cr19       Cr  0.60305188  0.83617020  0.29063328     1.93700
Cr20       Cr  0.65815978  0.76852634  0.25960875     1.93200
Cr21       Cr  0.67022531  0.84020160  0.21180845     1.39100
O22         O  0.64430937  0.81504319  0.25405089    -1.23600
O23         O  0.34296860  0.87258871  0.84519088    -0.85900
O24         O  0.37028078  0.80722665  0.81017693    -0.82900
C25         C  0.36803661  0.77396963  0.80109846     0.97600
O26         O  0.32349127  0.75848816  0.78635209    -0.83000
O27         O  0.26856510  0.76671620  0.86473773    -0.85600
C28         C  0.24020774  0.78078902  0.89278763     1.02100
O29         O  0.21411840  0.80935522  0.87852648    -0.78400
O30         O  0.29671012  0.85534295  0.89747264    -0.78600
C31         C  0.33872130  0.86817826  0.89238985     1.02000
O32         O  0.26297602  0.87954888  0.73783558    -0.85900
O33         O  0.29438152  0.81344534  0.70333212    -0.83000
C34         C  0.25586015  0.79280375  0.67981900     0.97600
O35         O  0.22754468  0.78051802  0.70618820    -0.83000
O36         O  0.17132720  0.78364101  0.77955597    -0.85600
C37         C  0.14083089  0.81132049  0.77170232     1.02100
O38         O  0.15969419  0.84239215  0.78185384    -0.78400
O39         O  0.23632131  0.89565419  0.80828747    -0.78600
C40         C  0.24259364  0.90272172  0.76344816     1.02000
Cr41       Cr  0.31331178  0.84175467  0.77579179     1.93700
Cr42       Cr  0.24924759  0.77601078  0.78564440     1.93200
Cr43       Cr  0.22964374  0.84876647  0.83805192     1.39100
O44         O  0.26405945  0.82211232  0.79914888    -1.23600
O45         O  0.82380108  0.63801476  0.86246280    -0.85900
O46         O  0.78398130  0.70027979  0.89558612    -0.82900
C47         C  0.76448718  0.73148679  0.89539264     0.97600
O48         O  0.74835429  0.74777045  0.85183093    -0.83000
O49         O  0.83142712  0.75209172  0.80572264    -0.85600
C50         C  0.86380461  0.74300883  0.77926801     1.02100
O51         O  0.85598769  0.71504272  0.74836783    -0.78400
O52         O  0.87662297  0.66353651  0.82434890    -0.78600
C53         C  0.87035424  0.64700050  0.86338022     1.02000
O54         O  0.72242696  0.62831761  0.77794507    -0.85900
O55         O  0.68081051  0.68967144  0.81764590    -0.83000
C56         C  0.65520754  0.70962621  0.77978096     0.97600
O57         O  0.67920261  0.72377035  0.75052426    -0.83000
O58         O  0.75692876  0.73418840  0.70120619    -0.85600
C59         C  0.75196755  0.70836064  0.66627539     1.02100
O60         O  0.76586738  0.67689110  0.68146442    -0.78400
O61         O  0.79462758  0.62035275  0.75221614    -0.78600
C62         C  0.75148220  0.60865001  0.75643765     1.02000
Cr63       Cr  0.75428030  0.66585694  0.83444608     1.93700
Cr64       Cr  0.75597513  0.73594028  0.77824294     1.93200
Cr65       Cr  0.81973644  0.67023321  0.75411610     1.39100
O66         O  0.77605941  0.69053775  0.78870318    -1.23600
O67         O  0.12805350  0.64774640  0.15440775    -0.85900
O68         O  0.20916143  0.69436641  0.17559118    -0.82900
C69         C  0.18036585  0.72166901  0.15986276     0.97600
O70         O  0.15248098  0.73565860  0.18849115    -0.83000
O71         O  0.09925919  0.74379218  0.26833388    -0.85600
C72         C  0.05489241  0.72828887  0.25435231     1.02100
O73         O  0.05268715  0.69520825  0.24335676    -0.78400
O74         O  0.07880847  0.63092697  0.20410376    -0.78600
C75         C  0.08480983  0.63578836  0.15766373     1.02000
O76         O  0.18791691  0.60666061  0.24280395    -0.85900
O77         O  0.26354760  0.66083501  0.27199933    -0.83000
C78         C  0.28179030  0.69210206  0.28125306     0.97600
O79         O  0.25067223  0.71944382  0.27343425    -0.83000
O80         O  0.19446355  0.72113111  0.34708650    -0.85600
C81         C  0.16650291  0.70798272  0.37320529     1.02100
O82         O  0.12876315  0.68671012  0.34948104    -0.78400
O83         O  0.15779818  0.62062286  0.31169047    -0.78600
C84         C  0.17943636  0.59826818  0.28601937     1.02000
Cr85       Cr  0.19418860  0.65421550  0.21488127     1.93700
Cr86       Cr  0.17284268  0.72627501  0.26779239     1.93200
Cr87       Cr  0.10897102  0.65983452  0.27562055     1.39100
O88         O  0.15873052  0.68004625  0.25370280    -1.23600
O89         O  0.65882774  0.14533023  0.11783310    -0.85900
O90         O  0.74101979  0.19106936  0.13554092    -0.82900
C91         C  0.71405585  0.21942098  0.12193485     0.97600
O92         O  0.68797550  0.23377557  0.15198245    -0.83000
O93         O  0.63766271  0.24163499  0.23385956    -0.85600
C94         C  0.59291523  0.22652586  0.22055511     1.02100
O95         O  0.58965967  0.19348395  0.20944357    -0.78400
O96         O  0.61340258  0.12817359  0.17095710    -0.78600
C97         C  0.61707664  0.13250120  0.12343945     1.02000
O98         O  0.72049777  0.10401613  0.20476081    -0.85900
O99         O  0.79810242  0.15670954  0.23023558    -0.83000
C100        C  0.81755555  0.18760766  0.24046203     0.97600
O101        O  0.78746404  0.21549934  0.23365386    -0.83000
O102        O  0.73473971  0.21837654  0.31024298    -0.85600
C103        C  0.70644181  0.20670588  0.33712923     1.02100
O104        O  0.66774778  0.18595292  0.31425210    -0.78400
O105        O  0.69597654  0.11936118  0.27675416    -0.78600
C106        C  0.71503949  0.09635265  0.24969268     1.02000
Cr107      Cr  0.72691492  0.15119269  0.17578742     1.93700
Cr108      Cr  0.71041738  0.22361844  0.23087790     1.93200
Cr109      Cr  0.64600168  0.15810722  0.24116226     1.39100
O110        O  0.69448842  0.17764972  0.21669860    -1.23600
O111        O  0.35399866  0.13214454  0.83008853    -0.85900
O112        O  0.31640240  0.19529550  0.86277208    -0.82900
C113        C  0.29816237  0.22684778  0.86246163     0.97600
O114        O  0.28444489  0.24343983  0.81911683    -0.83000
O115        O  0.36826523  0.24582412  0.77241907    -0.85600
C116        C  0.39935801  0.23607709  0.74473223     1.02100
O117        O  0.39117715  0.20724519  0.71581509    -0.78400
O118        O  0.40861117  0.15599189  0.79229064    -0.78600
C119        C  0.40112721  0.13985208  0.83112087     1.02000
O120        O  0.25259716  0.12445731  0.74444518    -0.85900
O121        O  0.21337929  0.18640915  0.78381019    -0.83000
C122        C  0.18944042  0.20708038  0.74634873     0.97600
O123        O  0.21475996  0.22065739  0.71788206    -0.83000
O124        O  0.29300163  0.22846371  0.66905628    -0.85600
C125        C  0.28660563  0.20251213  0.63429377     1.02100
O126        O  0.29939221  0.17089965  0.64934726    -0.78400
O127        O  0.32507686  0.11422713  0.72001595    -0.78600
C128        C  0.28105384  0.10375219  0.72374523     1.02000
Cr129      Cr  0.28584401  0.16130276  0.80136213     1.93700
Cr130      Cr  0.29203705  0.23098285  0.74574688     1.93200
Cr131      Cr  0.35260771  0.16350699  0.72193030     1.39100
O132        O  0.30970985  0.18521415  0.75626933    -1.23600
O133        O  0.87551128  0.36206277  0.82347642    -0.85900
O134        O  0.90236861  0.29972699  0.78036676    -0.82900
C135        C  0.89980557  0.26720775  0.76597911     0.97600
O136        O  0.85499773  0.25247561  0.74770749    -0.83000
O137        O  0.79560982  0.25980935  0.82263622    -0.85600
C138        C  0.76547688  0.27344805  0.84911413     1.02100
O139        O  0.73564647  0.30003839  0.83148124    -0.78400
O140        O  0.81503339  0.34682614  0.86153230    -0.78600
C141        C  0.86156230  0.35675789  0.86594524     1.02000
O142        O  0.80512657  0.37794327  0.71203618    -0.85900
O143        O  0.83217580  0.31243859  0.67081948    -0.83000
C144        C  0.79406381  0.29205125  0.64381550     0.97600
O145        O  0.76423798  0.27803204  0.66698467    -0.83000
O146        O  0.70132804  0.27718733  0.73333299    -0.85600
C147        C  0.67048422  0.30462086  0.72321304     1.02100
O148        O  0.68911598  0.33568801  0.73388984    -0.78400
O149        O  0.76405958  0.38942411  0.77335304    -0.78600
C150        C  0.77936301  0.39929999  0.73480325     1.02000
Cr151      Cr  0.84899345  0.33664426  0.74757411     1.93700
Cr152      Cr  0.78048718  0.27049304  0.74460361     1.93200
Cr153      Cr  0.75431357  0.34128995  0.79654322     1.39100
O154        O  0.79476520  0.31637356  0.76203055    -1.23600
O155        O  0.08549982  0.33857290  0.18375852    -0.85900
O156        O  0.09766429  0.28535816  0.25732395    -0.82900
C157        C  0.09149972  0.25693440  0.22761896     0.97600
O158        O  0.12452048  0.24827068  0.20176351    -0.83000
O159        O  0.20982659  0.25420561  0.15949317    -0.85600
C160        C  0.19700829  0.27242615  0.11764798     1.02100
O161        O  0.18261838  0.30476861  0.12020102    -0.78400
O162        O  0.14526519  0.36645695  0.15836850    -0.78600
C163        C  0.09741906  0.35680188  0.14928315     1.02000
O164        O  0.16580254  0.37907683  0.26505328    -0.85900
O165        O  0.18597051  0.31992712  0.33086053    -0.83000
C166        C  0.19898032  0.28796981  0.34432021     0.97600
O167        O  0.19627798  0.26300866  0.30842953    -0.83000
O168        O  0.27774915  0.27293075  0.26489132    -0.85600
C169        C  0.30498089  0.28798260  0.23980420     1.02100
O170        O  0.28274534  0.30986094  0.20369572    -0.78400
O171        O  0.24246145  0.36971573  0.24835456    -0.78600
C172        C  0.21159302  0.38982136  0.26692240     1.02000
Cr173      Cr  0.13721209  0.32951936  0.25688122     1.93700
Cr174      Cr  0.20047184  0.26327831  0.23282311     1.93200
Cr175      Cr  0.21129590  0.33568087  0.18612032     1.39100
O176        O  0.18355376  0.30940134  0.22556227    -1.23600
C177        C  0.89889831  0.35989508  0.92276566    -0.05800
C178        C  0.88245511  0.34567572  0.96473325    -0.05700
C179        C  0.91668374  0.34421831  0.01768722    -0.23900
C180        C  0.96852263  0.35718975  0.03083064     0.18300
C181        C  0.98548277  0.37282255  0.99017510     0.15600
C182        C  0.95071252  0.37391155  0.93614128    -0.18900
C183        C  0.03746085  0.38616101  0.00419246    -0.20700
C184        C  0.07267565  0.38263272  0.05681724    -0.13300
C185        C  0.05692227  0.36559337  0.09679447     0.03400
C186        C  0.00409752  0.35367010  0.08359831    -0.25400
H187        H  0.84313830  0.33439880  0.95649302     0.08500
H188        H  0.90280089  0.33224090  0.04818216     0.12100
H189        H  0.96422830  0.38492568  0.90468914     0.12000
H190        H  0.05140605  0.39852362  0.97409441     0.11800
H191        H  0.11309891  0.39214406  0.06555965     0.12300
H192        H  0.99119447  0.34045334  0.11372010     0.14200
C193        C  0.21468759  0.27808203  0.40171480    -0.05800
C194        C  0.21356404  0.30341110  0.44364072    -0.05700
C195        C  0.22563013  0.29299812  0.49722354    -0.23900
C196        C  0.23912910  0.25714347  0.50957586     0.18300
C197        C  0.24078478  0.23145564  0.46790640     0.15600
C198        C  0.22870421  0.24209452  0.41434832    -0.18900
C199        C  0.25458548  0.19561466  0.48055371    -0.20700
C200        C  0.26796135  0.18549641  0.53452804    -0.13300
C201        C  0.26743209  0.21109480  0.57633528     0.03400
C202        C  0.25182713  0.24674179  0.56316279    -0.25400
H203        H  0.20276626  0.33114175  0.43495275     0.08500
H204        H  0.22437322  0.31296723  0.52900105     0.12100
H205        H  0.22985624  0.22215611  0.38246886     0.12000
H206        H  0.25583107  0.17557746  0.44886153     0.11800
H207        H  0.27986902  0.15796183  0.54366697     0.12300
H208        H  0.25077526  0.26684208  0.59487013     0.14200
C209        C  0.20648255  0.25703835  0.06759195    -0.05800
C210        C  0.22186342  0.22077009  0.06439319    -0.05700
C211        C  0.24458243  0.20801240  0.02429966    -0.23900
C212        C  0.25247597  0.23140174  0.98712592     0.18300
C213        C  0.23439917  0.26745900  0.98815245     0.15600
C214        C  0.21067114  0.27990041  0.02784273    -0.18900
C215        C  0.24190664  0.29071468  0.95055325    -0.20700
C216        C  0.26634516  0.27814433  0.91159556    -0.13300
C217        C  0.28405545  0.24225422  0.91012407     0.03400
C218        C  0.27786828  0.21921949  0.94873949    -0.25400
H219        H  0.21891228  0.20267132  0.09460463     0.08500
H220        H  0.25760923  0.18016967  0.02351711     0.12100
H221        H  0.19901599  0.30796360  0.03000055     0.12000
H222        H  0.22823766  0.31844150  0.95079959     0.11800
H223        H  0.26981414  0.29616693  0.88150499     0.12300
H224        H  0.29029854  0.19126918  0.94725208     0.14200
C225        C  0.61259461  0.29911011  0.70788576    -0.05800
C226        C  0.58937837  0.27417876  0.66547975    -0.05700
C227        C  0.53970758  0.25989091  0.66110545    -0.23900
C228        C  0.51368037  0.26936434  0.70042526     0.18300
C229        C  0.53546079  0.29575160  0.74179596     0.15600
C230        C  0.58438164  0.31114357  0.74447268    -0.18900
C231        C  0.50988176  0.30434058  0.78187934    -0.20700
C232        C  0.46459835  0.28571590  0.78243954    -0.13300
C233        C  0.44422758  0.25836091  0.74282283     0.03400
C234        C  0.46808842  0.25123147  0.70091639    -0.25400
H235        H  0.61120611  0.26423484  0.63768648     0.08500
H236        H  0.52338628  0.23973110  0.62909531     0.12100
H237        H  0.60306296  0.32966023  0.77818128     0.12000
H238        H  0.52600199  0.32453561  0.81387192     0.11800
H239        H  0.44658019  0.29191845  0.81473875     0.12300
H240        H  0.45229183  0.23058413  0.66949381     0.14200
C241        C  0.94994704  0.24812091  0.76491778    -0.05800
C242        C  0.96863095  0.21709229  0.79346957    -0.05700
C243        C  0.01878947  0.20164276  0.79429425    -0.23900
C244        C  0.05019987  0.21667055  0.76564239     0.18300
C245        C  0.03016950  0.24707103  0.73514731     0.15600
C246        C  0.98072536  0.26271115  0.73553856    -0.18900
C247        C  0.06023102  0.26185037  0.70537409    -0.20700
C248        C  0.11066193  0.24745574  0.70701205    -0.13300
C249        C  0.13255214  0.21818294  0.73895787     0.03400
C250        C  0.10157302  0.20249626  0.76767578    -0.25400
H251        H  0.94528472  0.20553830  0.81631798     0.08500
H252        H  0.03323007  0.17821859  0.81770867     0.12100
H253        H  0.96603244  0.28651179  0.71298762     0.12000
H254        H  0.04513533  0.28501928  0.68152165     0.11800
H255        H  0.13341304  0.26023028  0.68470384     0.12300
H256        H  0.11783742  0.17992367  0.79250089     0.14200
C257        C  0.71721784  0.21928833  0.39541764    -0.05800
C258        C  0.68289301  0.21000819  0.42500266    -0.05700
C259        C  0.69046847  0.22359286  0.47842318    -0.23900
C260        C  0.73270008  0.24670502  0.50369829     0.18300
C261        C  0.76777046  0.25637010  0.47493893     0.15600
C262        C  0.75980791  0.24265272  0.42093576    -0.18900
C263        C  0.81013638  0.27946204  0.50092115    -0.20700
C264        C  0.81833376  0.29211815  0.55526957    -0.13300
C265        C  0.78405053  0.28215992  0.58453780     0.03400
C266        C  0.74070222  0.25982366  0.55763268    -0.25400
H267        H  0.64958117  0.19254233  0.40658839     0.08500
H268        H  0.66317569  0.21597398  0.50004610     0.12100
H269        H  0.78655914  0.25037441  0.39875778     0.12000
H270        H  0.83745010  0.28729543  0.47947636     0.11800
H271        H  0.85202293  0.30907931  0.57465776     0.12300
H272        H  0.71347715  0.25178563  0.57907703     0.14200
C273        C  0.76231993  0.25858838  0.89952156    -0.05800
C274        C  0.78075442  0.22369643  0.91291199    -0.05700
C275        C  0.77373120  0.20922476  0.95887566    -0.23900
C276        C  0.74857734  0.22962031  0.99209681     0.18300
C277        C  0.73105162  0.26508143  0.97978853     0.15600
C278        C  0.73816715  0.27936751  0.93360944    -0.18900
C279        C  0.70632159  0.28543108  0.01358679    -0.20700
C280        C  0.69922488  0.27063623  0.05953800    -0.13300
C281        C  0.71682482  0.23539554  0.07199534     0.03400
C282        C  0.74095839  0.21503179  0.03761622    -0.25400
H283        H  0.79940183  0.20735989  0.88720452     0.08500
H284        H  0.78756381  0.18200886  0.96821599     0.12100
H285        H  0.72439484  0.30658056  0.92394061     0.12000
H286        H  0.69277154  0.31274742  0.00462712     0.11800
H287        H  0.68091762  0.28683801  0.08568001     0.12300
H288        H  0.75455543  0.18769857  0.04653146     0.14200
C289        C  0.04648833  0.23394815  0.22675671    -0.05800
C290        C  0.02590496  0.20809718  0.18468658    -0.05700
C291        C  0.97963064  0.18959851  0.18268017    -0.23900
C292        C  0.95342439  0.19682609  0.22265329     0.18300
C293        C  0.97583031  0.22142056  0.26658084     0.15600
C294        C  0.02225506  0.23933767  0.26859790    -0.18900
C295        C  0.94968967  0.22952803  0.30613226    -0.20700
C296        C  0.89945572  0.21567465  0.29992048    -0.13300
C297        C  0.87550164  0.19263946  0.25514965     0.03400
C298        C  0.90351776  0.18195078  0.21776223    -0.25400
H299        H  0.04433705  0.20319193  0.15243506     0.08500
H300        H  0.96321574  0.17069313  0.14881714     0.12100
H301        H  0.03837626  0.25867308  0.30201191     0.12000
H302        H  0.96654354  0.24831307  0.34005964     0.11800
H303        H  0.87783767  0.22450559  0.32843304     0.12300
H304        H  0.88431979  0.16485450  0.18236939     0.14200
C305        C  0.36237662  0.27766046  0.24943463    -0.05800
C306        C  0.38528471  0.25002041  0.28441216    -0.05700
C307        C  0.43630226  0.23602740  0.28745548    -0.23900
C308        C  0.46555562  0.24945389  0.25570810     0.18300
C309        C  0.44451462  0.27851863  0.22252082     0.15600
C310        C  0.39297261  0.29248180  0.21959193    -0.18900
C311        C  0.47475589  0.29217820  0.19155530    -0.20700
C312        C  0.52448492  0.27632386  0.19212695    -0.13300
C313        C  0.54393871  0.24635935  0.22296654     0.03400
C314        C  0.51479905  0.23349107  0.25537882    -0.25400
H315        H  0.36291049  0.23816014  0.30796267     0.08500
H316        H  0.45224329  0.21397708  0.31350476     0.12100
H317        H  0.37598552  0.31387792  0.19255351     0.12000
H318        H  0.45947530  0.31460214  0.16612337     0.11800
H319        H  0.54671853  0.28654635  0.16707349     0.12300
H320        H  0.53025499  0.21055548  0.27976138     0.14200
C321        C  0.57209526  0.12400964  0.07316461    -0.05800
C322        C  0.52018267  0.11761751  0.07543202    -0.05700
C323        C  0.47656997  0.11596332  0.02762060    -0.23900
C324        C  0.48396153  0.12101235  0.97668623     0.18300
C325        C  0.53632021  0.12566729  0.97375123     0.15600
C326        C  0.57985362  0.12663730  0.02162850    -0.18900
C327        C  0.54409702  0.13122950  0.92331087    -0.20700
C328        C  0.50021251  0.13420485  0.87660434    -0.13300
C329        C  0.44757080  0.13109355  0.87901543     0.03400
C330        C  0.43989126  0.12329763  0.92913427    -0.25400
H331        H  0.51287684  0.11548556  0.11431610     0.08500
H332        H  0.43674530  0.11218313  0.03074823     0.12100
H333        H  0.61956652  0.13136109  0.01883045     0.12000
H334        H  0.58406402  0.13470100  0.92034202     0.11800
H335        H  0.50746235  0.14001922  0.83876561     0.12300
H336        H  0.39957323  0.12102836  0.93183842     0.14200
C337        C  0.22526297  0.42757890  0.28408389    -0.05800
C338        C  0.26421311  0.44411014  0.26674305    -0.05700
C339        C  0.26761367  0.48138872  0.26996647    -0.23900
C340        C  0.23215733  0.50270443  0.29064920     0.18300
C341        C  0.19621444  0.48627471  0.31278935     0.15600
C342        C  0.19326067  0.44879525  0.30971909    -0.18900
C343        C  0.16116507  0.50766018  0.33401798    -0.20700
C344        C  0.15870161  0.54478858  0.32930991    -0.13300
C345        C  0.19107138  0.56101597  0.30311782     0.03400
C346        C  0.22944505  0.53996389  0.28608455    -0.25400
H347        H  0.28952283  0.42842727  0.24711702     0.08500
H348        H  0.29592427  0.49356925  0.25349870     0.12100
H349        H  0.16345152  0.43633610  0.32381673     0.12000
H350        H  0.13372137  0.49553141  0.35167242     0.11800
H351        H  0.12892799  0.56047009  0.34280449     0.12300
H352        H  0.25499821  0.55232908  0.26633483     0.14200
C353        C  0.73860206  0.57059698  0.74125078    -0.05800
C354        C  0.69995508  0.55423736  0.75925530    -0.05700
C355        C  0.69589596  0.51701924  0.75551090    -0.23900
C356        C  0.73059098  0.49559259  0.73395754     0.18300
C357        C  0.76685794  0.51184831  0.71206131     0.15600
C358        C  0.77022142  0.54925525  0.71532707    -0.18900
C359        C  0.80155596  0.49034988  0.69052105    -0.20700
C360        C  0.80310204  0.45318248  0.69435508    -0.13300
C361        C  0.76989027  0.43702516  0.71967622     0.03400
C362        C  0.73203084  0.45830856  0.73716925    -0.25400
H363        H  0.67495155  0.57002512  0.77910517     0.08500
H364        H  0.66748675  0.50494021  0.77199518     0.12100
H365        H  0.79986586  0.56155094  0.70077902     0.12000
H366        H  0.82932335  0.50238491  0.67315716     0.11800
H367        H  0.83246734  0.43734487  0.68044589     0.12300
H368        H  0.70576494  0.44606158  0.75622350     0.14200
C369        C  0.04059844  0.62908396  0.10601848    -0.05800
C370        C  0.98888429  0.62062276  0.10663850    -0.05700
C371        C  0.94587910  0.61957587  0.05837817    -0.23900
C372        C  0.95355686  0.62729650  0.00852319     0.18300
C373        C  0.00561413  0.63466608  0.00704040     0.15600
C374        C  0.04867389  0.63516961  0.05545078    -0.18900
C375        C  0.01340007  0.64291917  0.95753692    -0.20700
C376        C  0.96972518  0.64542788  0.91040989    -0.13300
C377        C  0.91731968  0.63928754  0.91147049     0.03400
C378        C  0.90984574  0.62925373  0.96065449    -0.25400
H379        H  0.98125053  0.61601569  0.14471093     0.08500
H380        H  0.90623426  0.61383729  0.06035692     0.12100
H381        H  0.08814714  0.64186736  0.05392178     0.12000
H382        H  0.05311226  0.64857688  0.95562411     0.11800
H383        H  0.97686056  0.65313949  0.87335905     0.12300
H384        H  0.86973787  0.62467232  0.96241338     0.14200
C385        C  0.26647471  0.06587118  0.70966865    -0.05800
C386        C  0.29676583  0.04332478  0.68385910    -0.05700
C387        C  0.29215477  0.00619516  0.68201470    -0.23900
C388        C  0.25794469  0.99098555  0.70690601     0.18300
C389        C  0.22459741  0.01349925  0.72959061     0.15600
C390        C  0.22817416  0.05079589  0.72967602    -0.18900
C391        C  0.19147934  0.99840163  0.75584691    -0.20700
C392        C  0.19484862  0.96171032  0.76376502    -0.13300
C393        C  0.23031551  0.93939884  0.74431485     0.03400
C394        C  0.25966650  0.95392159  0.71333491    -0.25400
H395        H  0.32616469  0.05429377  0.66760959     0.08500
H396        H  0.31772044  0.98938118  0.66407618     0.12100
H397        H  0.20455938  0.06785941  0.74967794     0.12000
H398        H  0.16540128  0.01520721  0.77315189     0.11800
H399        H  0.17143848  0.95098536  0.78727330     0.12300
H400        H  0.28733239  0.93694548  0.69843550     0.14200
C401        C  0.24476559  0.78134871  0.62115162    -0.05800
C402        C  0.27836138  0.79150257  0.59125815    -0.05700
C403        C  0.27002372  0.77876254  0.53723893    -0.23900
C404        C  0.22792688  0.75554721  0.51188101     0.18300
C405        C  0.19343318  0.74539499  0.54107945     0.15600
C406        C  0.20191542  0.75841639  0.59531815    -0.18900
C407        C  0.15130176  0.72219340  0.51558792    -0.20700
C408        C  0.14322282  0.70931413  0.46159284    -0.13300
C409        C  0.17709382  0.71935285  0.43188975     0.03400
C410        C  0.21967178  0.74244434  0.45777063    -0.25400
H411        H  0.31167662  0.80891271  0.60989809     0.08500
H412        H  0.29684119  0.78688156  0.51538350     0.12100
H413        H  0.17549843  0.75023521  0.61760310     0.12000
H414        H  0.12436683  0.71412564  0.53734927     0.11800
H415        H  0.10994161  0.69190040  0.44282916     0.12300
H416        H  0.24620553  0.75064143  0.43563025     0.14200
C417        C  0.18270584  0.73689779  0.10912703    -0.05800
C418        C  0.15490883  0.76864074  0.09015203    -0.05700
C419        C  0.16015851  0.78311313  0.04324403    -0.23900
C420        C  0.19343040  0.76605583  0.01498278     0.18300
C421        C  0.22074361  0.73380216  0.03320273     0.15600
C422        C  0.21494990  0.71938060  0.07980602    -0.18900
C423        C  0.25404948  0.71674192  0.00501291    -0.20700
C424        C  0.26081482  0.73185642  0.95924433    -0.13300
C425        C  0.23424541  0.76414013  0.94110123     0.03400
C426        C  0.20027087  0.78092909  0.96911776    -0.25400
H427        H  0.12974022  0.78245256  0.11186427     0.08500
H428        H  0.13877962  0.80784353  0.02945914     0.12100
H429        H  0.23645580  0.69467609  0.09365767     0.12000
H430        H  0.27513906  0.69188301  0.01860562     0.11800
H431        H  0.28681402  0.71837445  0.93818288     0.12300
H432        H  0.17915124  0.80578812  0.95547955     0.14200
C433        C  0.59764974  0.71886355  0.77244556    -0.05800
C434        C  0.56803638  0.73801328  0.72734216    -0.05700
C435        C  0.51601382  0.75068776  0.72298582    -0.23900
C436        C  0.49245998  0.74468737  0.76379723     0.18300
C437        C  0.52096835  0.72475973  0.80886407     0.15600
C438        C  0.57334431  0.71180143  0.81279086    -0.18900
C439        C  0.49704185  0.71915158  0.84983419    -0.20700
C440        C  0.44593012  0.73380870  0.84661665    -0.13300
C441        C  0.41819602  0.75418070  0.80241979     0.03400
C442        C  0.44144379  0.75923637  0.76097143    -0.25400
H443        H  0.58557034  0.74392613  0.69579212     0.08500
H444        H  0.49459689  0.76588189  0.68816807     0.12100
H445        H  0.59579052  0.69743474  0.84816430     0.12000
H446        H  0.51828914  0.70408389  0.88484563     0.11800
H447        H  0.42878368  0.73019579  0.87929635     0.12300
H448        H  0.42019455  0.77536198  0.72712097     0.14200
C449        C  0.91034175  0.76488664  0.78188278    -0.05800
C450        C  0.93273279  0.78858395  0.82649771    -0.05700
C451        C  0.98009930  0.80623066  0.83034007    -0.23900
C452        C  0.00561167  0.80035216  0.78962274     0.18300
C453        C  0.98204505  0.77754606  0.74367077     0.15600
C454        C  0.93455613  0.76031289  0.73996554    -0.18900
C455        C  0.00783152  0.77072410  0.70349973    -0.20700
C456        C  0.05842935  0.78437797  0.71058168    -0.13300
C457        C  0.08301040  0.80598964  0.75689446     0.03400
C458        C  0.05575596  0.81503134  0.79543782    -0.25400
H459        H  0.91467374  0.79249479  0.85918375     0.08500
H460        H  0.99765551  0.82356430  0.86592021     0.12100
H461        H  0.91732726  0.74234166  0.70502051     0.12000
H462        H  0.99021557  0.75324057  0.66810859     0.11800
H463        H  0.07962504  0.77666260  0.68126450     0.12300
H464        H  0.07558381  0.83086277  0.83206814     0.14200
C465        C  0.72695936  0.05927228  0.26737548    -0.05800
C466        C  0.75905863  0.03650324  0.24404423    -0.05700
C467        C  0.76216229  0.99978267  0.25161223    -0.23900
C468        C  0.73221648  0.98507553  0.28163340     0.18300
C469        C  0.70212905  0.00791233  0.30776624     0.15600
C470        C  0.70064299  0.04501391  0.30145776    -0.18900
C471        C  0.67082815  0.99300804  0.33628993    -0.20700
C472        C  0.66582963  0.95588895  0.33504794    -0.13300
C473        C  0.69311772  0.93305638  0.30643978     0.03400
C474        C  0.72856094  0.94784171  0.28231430    -0.25400
H475        H  0.78008032  0.04692460  0.21800254     0.08500
H476        H  0.78560500  0.98269223  0.23147903     0.12100
H477        H  0.67553056  0.06229913  0.31935524     0.12000
H478        H  0.64770435  0.01006934  0.35679444     0.11800
H479        H  0.63849998  0.94513863  0.35417603     0.12300
H480        H  0.74961963  0.93058145  0.25982039     0.14200
C481        C  0.68118707  0.78206785  0.43121707    -0.05800
C482        C  0.69031620  0.80843992  0.47370194    -0.05700
C483        C  0.70473290  0.79880331  0.52777741    -0.23900
C484        C  0.71037888  0.76261218  0.54032342     0.18300
C485        C  0.70124853  0.73571307  0.49819301     0.15600
C486        C  0.68663708  0.74559965  0.44385368    -0.18900
C487        C  0.70726597  0.69949926  0.51130302    -0.20700
C488        C  0.72320717  0.69012506  0.56587772    -0.13300
C489        C  0.73286368  0.71684179  0.60800170     0.03400
C490        C  0.72565478  0.75304320  0.59454158    -0.25400
H491        H  0.68619616  0.83657764  0.46516530     0.08500
H492        H  0.71164541  0.81968718  0.55983839     0.12100
H493        H  0.67946997  0.72487345  0.41151469     0.12000
H494        H  0.70022526  0.67848856  0.47942213     0.11800
H495        H  0.72828430  0.66210406  0.57509789     0.12300
H496        H  0.73290424  0.77410311  0.62638471     0.14200
C497        C  0.66422852  0.76311667  0.09395946    -0.05800
C498        C  0.67052425  0.72607557  0.08530083    -0.05700
C499        C  0.69340588  0.71273564  0.04556375    -0.23900
C500        C  0.71100703  0.73632114  0.01462849     0.18300
C501        C  0.70302578  0.77362876  0.02164651     0.15600
C502        C  0.67892721  0.78675922  0.06074948    -0.18900
C503        C  0.72027951  0.79713092  0.99021405    -0.20700
C504        C  0.74383798  0.78362330  0.95095447    -0.13300
C505        C  0.75147629  0.74656381  0.94366236     0.03400
C506        C  0.73598503  0.72312503  0.97640468    -0.25400
H507        H  0.65974357  0.70752428  0.11078394     0.08500
H508        H  0.69878976  0.68404642  0.04014827     0.12100
H509        H  0.67489459  0.81545662  0.06769242     0.12000
H510        H  0.71450928  0.82582045  0.99517952     0.11800
H511        H  0.75466327  0.80197680  0.92521275     0.12300
H512        H  0.74044000  0.69441522  0.96992070     0.14200
C513        C  0.81960337  0.77838561  0.27288733    -0.09000
C514        C  0.83692876  0.74611338  0.29881948    -0.05700
C515        C  0.88697318  0.73088714  0.30124000    -0.23900
C516        C  0.92122680  0.74778671  0.27839789     0.18300
C517        C  0.90608437  0.78123551  0.25484521     0.15600
C518        C  0.85494770  0.79628222  0.25177343    -0.18900
C519        C  0.94200696  0.79837816  0.23379424    -0.20700
C520        C  0.99150591  0.78190376  0.23460001    -0.13300
C521        C  0.00495459  0.74776564  0.25523516     0.03400
C522        C  0.96997788  0.73123749  0.27786718    -0.25400
H523        H  0.81080961  0.73166389  0.31540391     0.08500
H524        H  0.89839273  0.70542029  0.31996156     0.12100
H525        H  0.84228521  0.82128304  0.23198807     0.12000
H526        H  0.93156624  0.82424349  0.21617627     0.11800
H527        H  0.01842616  0.79523629  0.21766439     0.12300
H528        H  0.98084533  0.70525246  0.29516130     0.14200
C529        C  0.33909827  0.69812335  0.29293144    -0.05800
C530        C  0.36569588  0.71898482  0.33936931    -0.05700
C531        C  0.41468937  0.73410240  0.34326205    -0.23900
C532        C  0.43665660  0.72953138  0.29983145     0.18300
C533        C  0.41092663  0.70766566  0.25350222     0.15600
C534        C  0.36259905  0.69153056  0.25080766    -0.18900
C535        C  0.43247777  0.70398212  0.20959456    -0.20700
C536        C  0.47851481  0.72243811  0.21114221    -0.13300
C537        C  0.50336623  0.74490524  0.25650397     0.03400
C538        C  0.48262135  0.74778957  0.30104847    -0.25400
H539        H  0.34712588  0.72506113  0.37131127     0.08500
H540        H  0.43394828  0.75089577  0.37895172     0.12100
H541        H  0.34096309  0.67646269  0.21405608     0.12000
H542        H  0.41309931  0.68745652  0.17364641     0.11800
H543        H  0.49393098  0.71982405  0.17647765     0.12300
H544        H  0.50181554  0.76478502  0.33656946     0.14200
C545        C  0.50924071  0.87261448  0.13636080    -0.05800
C546        C  0.45682347  0.86882255  0.13918074    -0.05700
C547        C  0.41270308  0.87050845  0.09255107    -0.23900
C548        C  0.41997139  0.87568313  0.04183303     0.18300
C549        C  0.47202560  0.88114833  0.03849184     0.15600
C550        C  0.51637486  0.87996293  0.08591893    -0.18900
C551        C  0.47892617  0.88594270  0.98733790    -0.20700
C552        C  0.43516019  0.88363127  0.93983274    -0.13300
C553        C  0.38358519  0.87666411  0.94256211     0.03400
C554        C  0.37627354  0.87377844  0.99416864    -0.25400
H555        H  0.44997894  0.86319675  0.17728410     0.08500
H556        H  0.37301844  0.86640690  0.09587224     0.12100
H557        H  0.55651379  0.88260438  0.08290330     0.12000
H558        H  0.51847786  0.89024643  0.98385210     0.11800
H559        H  0.44210724  0.88585733  0.90080228     0.12300
H560        H  0.33683867  0.86844493  0.99722158     0.14200
loop_ 
_geom_bond_atom_site_label_1 
_geom_bond_atom_site_label_2 
_geom_bond_distance 
_geom_bond_site_symmetry_2 
_ccdc_geom_bond_type 
O1          Cr19   1.972       .  S
O1            C9   1.263       .  A
O2          Cr19   1.996       .  S
O2            C3   1.264       .  A
C3            O4   1.262       .  A
C3          C537   1.475       .  S
O4          Cr20   1.989       .  S
O5          Cr20   1.995       .  S
O5            C6   1.261       .  A
C6            O7   1.252       .  A
C6          C497   1.466       .  S
O7          Cr21   1.959       .  S
O8          Cr21   2.021       .  S
O8            C9   1.271       .  A
C9          C545   1.488       .  S
O10         Cr19   2.007       .  S
O10          C18   1.263       .  A
O11         Cr19   1.988       .  S
O11          C12   1.268       .  A
C12          O13   1.266       .  A
C12         C481   1.480       .  S
O13         Cr20   2.001       .  S
O14         Cr20   1.967       .  S
O14          C15   1.262       .  A
C15          O16   1.270       .  A
C15         C513   1.484       .  S
O16         Cr21   2.023       .  S
O17         Cr21   1.971       .  S
O17          C18   1.256       .  A
C18         C473   1.480       .  S
Cr19         O22   1.770       .  S
Cr20         O22   1.769       .  S
Cr21         O22   1.773       .  S
O23         Cr41   2.033       .  S
O23          C31   1.275       .  A
O24         Cr41   1.965       .  S
O24          C25   1.254       .  A
C25          O26   1.265       .  A
C25         C441   1.472       .  S
O26         Cr42   2.019       .  S
O27         Cr42   1.995       .  S
O27          C28   1.263       .  A
C28          O29   1.257       .  A
C28         C425   1.476       .  S
O29         Cr43   1.977       .  S
O30         Cr43   1.965       .  S
O30          C31   1.261       .  A
C31         C553   1.490       .  S
O32         Cr41   1.982       .  S
O32          C40   1.257       .  A
O33         Cr41   2.028       .  S
O33          C34   1.273       .  A
C34          O35   1.260       .  A
C34         C401   1.492       .  S
O35         Cr42   1.969       .  S
O36         Cr42   2.005       .  S
O36          C37   1.269       .  A
C37          O38   1.264       .  A
C37         C457   1.463       .  S
O38         Cr43   1.976       .  S
O39         Cr43   1.990       .  S
O39          C40   1.259       .  A
C40         C393   1.476       .  S
Cr41         O44   1.776       .  S
Cr42         O44   1.775       .  S
Cr43         O44   1.778       .  S
O45         Cr63   2.014       .  S
O45          C53   1.269       .  A
O46         Cr63   1.964       .  S
O46          C47   1.255       .  A
C47          O48   1.259       .  A
C47         C505   1.462       .  S
O48         Cr64   1.988       .  S
O49         Cr64   1.991       .  S
O49          C50   1.262       .  A
C50          O51   1.263       .  A
C50         C449   1.476       .  S
O51         Cr65   1.994       .  S
O52         Cr65   1.990       .  S
O52          C53   1.265       .  A
C53         C377   1.492       .  S
O54         Cr63   1.979       .  S
O54          C62   1.259       .  A
O55         Cr63   2.020       .  S
O55          C56   1.269       .  A
C56          O57   1.265       .  A
C56         C433   1.488       .  S
O57         Cr64   1.980       .  S
O58         Cr64   1.990       .  S
O58          C59   1.265       .  A
C59          O60   1.268       .  A
C59         C489   1.483       .  S
O60         Cr65   1.999       .  S
O61         Cr65   1.997       .  S
O61          C62   1.263       .  A
C62         C353   1.480       .  S
Cr63         O66   1.772       .  S
Cr64         O66   1.770       .  S
Cr65         O66   1.771       .  S
O67         Cr85   1.962       .  S
O67          C75   1.260       .  A
O68         Cr85   1.975       .  S
O68          C69   1.256       .  A
C69          O70   1.264       .  A
C69         C417   1.475       .  S
O70         Cr86   2.000       .  S
O71         Cr86   2.011       .  S
O71          C72   1.261       .  A
C72          O73   1.254       .  A
C72         C521   1.475       .  S
O73         Cr87   1.961       .  S
O74         Cr87   2.038       .  S
O74          C75   1.277       .  A
C75         C369   1.494       .  S
O76         Cr85   1.989       .  S
O76          C84   1.258       .  A
O77         Cr85   1.977       .  S
O77          C78   1.264       .  A
C78          O79   1.268       .  A
C78         C529   1.461       .  S
O79         Cr86   2.003       .  S
O80         Cr86   1.969       .  S
O80          C81   1.262       .  A
C81          O82   1.275       .  A
C81         C409   1.493       .  S
O82         Cr87   2.032       .  S
O83         Cr87   1.986       .  S
O83          C84   1.257       .  A
C84         C345   1.479       .  S
Cr85         O88   1.780       .  S
Cr86         O88   1.778       .  S
Cr87         O88   1.776       .  S
O89        Cr107   1.961       .  S
O89          C97   1.260       .  A
O90        Cr107   1.973       .  S
O90          C91   1.257       .  A
C91          O92   1.262       .  A
C91         C281   1.472       .  S
O92        Cr108   1.995       .  S
O93        Cr108   2.014       .  S
O93          C94   1.263       .  A
C94          O95   1.254       .  A
C94         C313   1.470       .  S
O95        Cr109   1.959       .  S
O96        Cr109   2.042       .  S
O96          C97   1.277       .  A
C97         C321   1.493       .  S
O98        Cr107   1.989       .  S
O98         C106   1.259       .  A
O99        Cr107   1.976       .  S
O99         C100   1.264       .  A
C100        O101   1.270       .  A
C100        C297   1.464       .  S
O101       Cr108   2.005       .  S
O102       Cr108   1.970       .  S
O102        C103   1.260       .  A
C103        O104   1.275       .  A
C103        C257   1.494       .  S
O104       Cr109   2.033       .  S
O105       Cr109   1.984       .  S
O105        C106   1.257       .  A
C106        C465   1.478       .  S
Cr107       O110   1.777       .  S
Cr108       O110   1.778       .  S
Cr109       O110   1.774       .  S
O111       Cr129   2.015       .  S
O111        C119   1.269       .  A
O112       Cr129   1.962       .  S
O112        C113   1.255       .  A
C113        O114   1.259       .  A
C113        C217   1.466       .  S
O114       Cr130   1.987       .  S
O115       Cr130   1.994       .  S
O115        C116   1.264       .  A
C116        O117   1.263       .  A
C116        C233   1.481       .  S
O117       Cr131   1.995       .  S
O118       Cr131   1.986       .  S
O118        C119   1.266       .  A
C119        C329   1.490       .  S
O120       Cr129   1.976       .  S
O120        C128   1.258       .  A
O121       Cr129   2.017       .  S
O121        C122   1.268       .  A
C122        O123   1.263       .  A
C122        C249   1.487       .  S
O123       Cr130   1.976       .  S
O124       Cr130   1.981       .  S
O124        C125   1.263       .  A
C125        O126   1.267       .  A
C125        C201   1.476       .  S
O126       Cr131   1.995       .  S
O127       Cr131   2.000       .  S
O127        C128   1.263       .  A
C128        C385   1.479       .  S
Cr129       O132   1.773       .  S
Cr130       O132   1.771       .  S
Cr131       O132   1.772       .  S
O133       Cr151   2.058       .  S
O133        C141   1.281       .  A
O134       Cr151   1.961       .  S
O134        C135   1.250       .  A
C135        O136   1.260       .  A
C135        C241   1.474       .  S
O136       Cr152   2.015       .  S
O137       Cr152   1.991       .  S
O137        C138   1.263       .  A
C138        O139   1.258       .  A
C138        C273   1.468       .  S
O139       Cr153   1.980       .  S
O140       Cr153   1.939       .  S
O140        C141   1.257       .  A
C141        C177   1.497       .  S
O142       Cr151   1.984       .  S
O142        C150   1.255       .  A
O143       Cr151   2.056       .  S
O143        C144   1.282       .  A
C144        O145   1.260       .  A
C144        C265   1.497       .  S
O145       Cr152   1.951       .  S
O146       Cr152   2.009       .  S
O146        C147   1.269       .  A
C147        O148   1.262       .  A
C147        C225   1.465       .  S
O148       Cr153   1.973       .  S
O149       Cr153   1.980       .  S
O149        C150   1.256       .  A
C150        C361   1.478       .  S
Cr151       O154   1.778       .  S
Cr152       O154   1.775       .  S
Cr153       O154   1.780       .  S
O155       Cr173   2.001       .  S
O155        C163   1.267       .  A
O156       Cr173   1.987       .  S
O156        C157   1.261       .  A
C157        O158   1.262       .  A
C157        C289   1.479       .  S
O158       Cr174   1.996       .  S
O159       Cr174   1.986       .  S
O159        C160   1.261       .  A
C160        O161   1.257       .  A
C160        C209   1.467       .  S
O161       Cr175   1.966       .  S
O162       Cr175   2.003       .  S
O162        C163   1.265       .  A
C163        C185   1.491       .  S
O164       Cr173   2.004       .  S
O164        C172   1.264       .  A
O165       Cr173   1.993       .  S
O165        C166   1.270       .  A
C166        O167   1.265       .  A
C166        C193   1.477       .  S
O167       Cr174   1.985       .  S
O168       Cr174   1.979       .  S
O168        C169   1.262       .  A
C169        O170   1.265       .  A
C169        C305   1.484       .  S
O170       Cr175   2.006       .  S
O171       Cr175   1.980       .  S
O171        C172   1.260       .  A
C172        C337   1.481       .  S
Cr173       O176   1.769       .  S
Cr174       O176   1.771       .  S
Cr175       O176   1.773       .  S
C177        C178   1.415       .  A
C177        C182   1.409       .  A
C178        C179   1.392   1_556  A
C178        H187   1.083       .  S
C179        C180   1.395       .  A
C179        H188   1.084       .  S
C180        C186   1.408   1_655  A
C180        C181   1.417   1_554  A
C181        C183   1.402   1_656  A
C181        C182   1.418       .  A
C182        H189   1.084       .  S
C183        C184   1.402       .  A
C183        H190   1.083   1_554  S
C184        C185   1.411       .  A
C184        H191   1.083       .  S
C185        C186   1.404       .  A
C186        H192   1.085   1_455  S
C193        C194   1.402       .  A
C193        C198   1.412       .  A
C194        C195   1.396       .  A
C194        H203   1.083       .  S
C195        C196   1.404       .  A
C195        H204   1.083       .  S
C196        C202   1.395       .  A
C196        C197   1.409       .  A
C197        C199   1.406       .  A
C197        C198   1.398       .  A
C198        H205   1.084       .  S
C199        C200   1.400       .  A
C199        H206   1.083       .  S
C200        C201   1.402       .  A
C200        H207   1.083       .  S
C201        C202   1.410       .  A
C202        H208   1.084       .  S
C209        C210   1.405       .  A
C209        C214   1.404       .  A
C210        C211   1.392       .  A
C210        H219   1.083       .  S
C211        C212   1.399   1_554  A
C211        H220   1.084       .  S
C212        C218   1.394       .  A
C212        C213   1.413       .  A
C213        C215   1.400       .  A
C213        C214   1.396   1_556  A
C214        H221   1.085       .  S
C215        C216   1.394       .  A
C215        H222   1.084       .  S
C216        C217   1.405       .  A
C216        H223   1.083       .  S
C217        C218   1.403       .  A
C218        H224   1.085       .  S
C225        C226   1.401       .  A
C225        C230   1.406       .  A
C226        C227   1.395       .  A
C226        H235   1.084       .  S
C227        C228   1.403       .  A
C227        H236   1.084       .  S
C228        C234   1.399       .  A
C228        C229   1.412       .  A
C229        C231   1.406       .  A
C229        C230   1.405       .  A
C230        H237   1.085       .  S
C231        C232   1.402       .  A
C231        H238   1.083       .  S
C232        C233   1.404       .  A
C232        H239   1.083       .  S
C233        C234   1.408       .  A
C234        H240   1.084       .  S
C241        C242   1.403       .  A
C241        C246   1.403       .  A
C242        C243   1.406   1_655  A
C242        H251   1.083       .  S
C243        C244   1.409       .  A
C243        H252   1.083       .  S
C244        C250   1.411       .  A
C244        C245   1.413       .  A
C245        C247   1.399       .  A
C245        C246   1.400   1_455  A
C246        H253   1.085       .  S
C247        C248   1.394       .  A
C247        H254   1.084       .  S
C248        C249   1.406       .  A
C248        H255   1.083       .  S
C249        C250   1.413       .  A
C250        H256   1.084       .  S
C257        C258   1.405       .  A
C257        C262   1.417       .  A
C258        C259   1.399       .  A
C258        H267   1.083       .  S
C259        C260   1.404       .  A
C259        H268   1.084       .  S
C260        C266   1.404       .  A
C260        C261   1.409       .  A
C261        C263   1.410       .  A
C261        C262   1.413       .  A
C262        H269   1.084       .  S
C263        C264   1.408       .  A
C263        H270   1.083       .  S
C264        C265   1.406       .  A
C264        H271   1.083       .  S
C265        C266   1.415       .  A
C266        H272   1.084       .  S
C273        C274   1.400       .  A
C273        C278   1.410       .  A
C274        C275   1.394       .  A
C274        H283   1.083       .  S
C275        C276   1.403       .  A
C275        H284   1.083       .  S
C276        C282   1.392   1_556  A
C276        C277   1.409       .  A
C277        C279   1.406   1_556  A
C277        C278   1.397       .  A
C278        H285   1.084       .  S
C279        C280   1.400       .  A
C279        H286   1.083       .  S
C280        C281   1.402       .  A
C280        H287   1.083       .  S
C281        C282   1.408       .  A
C282        H288   1.084       .  S
C289        C290   1.404       .  A
C289        C294   1.407       .  A
C290        C291   1.404   1_455  A
C290        H299   1.083       .  S
C291        C292   1.407       .  A
C291        H300   1.084       .  S
C292        C298   1.407       .  A
C292        C293   1.413       .  A
C293        C295   1.401       .  A
C293        C294   1.396   1_655  A
C294        H301   1.085       .  S
C295        C296   1.392       .  A
C295        H302   1.084       .  S
C296        C297   1.400       .  A
C296        H303   1.084       .  S
C297        C298   1.407       .  A
C298        H304   1.085       .  S
C305        C306   1.406       .  A
C305        C310   1.412       .  A
C306        C307   1.395       .  A
C306        H315   1.083       .  S
C307        C308   1.400       .  A
C307        H316   1.084       .  S
C308        C314   1.399       .  A
C308        C309   1.413       .  A
C309        C311   1.408       .  A
C309        C310   1.408       .  A
C310        H317   1.084       .  S
C311        C312   1.403       .  A
C311        H318   1.083       .  S
C312        C313   1.401       .  A
C312        H319   1.083       .  S
C313        C314   1.403       .  A
C314        H320   1.085       .  S
C321        C322   1.406       .  A
C321        C326   1.412       .  A
C322        C323   1.406       .  A
C322        H331   1.083       .  S
C323        C324   1.407   1_554  A
C323        H332   1.083       .  S
C324        C330   1.412       .  A
C324        C325   1.411       .  A
C325        C327   1.403       .  A
C325        C326   1.405   1_556  A
C326        H333   1.084       .  S
C327        C328   1.398       .  A
C327        H334   1.084       .  S
C328        C329   1.406       .  A
C328        H335   1.083       .  S
C329        C330   1.413       .  A
C330        H336   1.084       .  S
C337        C338   1.405       .  A
C337        C342   1.409       .  A
C338        C339   1.398       .  A
C338        H347   1.083       .  S
C339        C340   1.403       .  A
C339        H348   1.083       .  S
C340        C346   1.404       .  A
C340        C341   1.413       .  A
C341        C343   1.404       .  A
C341        C342   1.404       .  A
C342        H349   1.084       .  S
C343        C344   1.399       .  A
C343        H350   1.083       .  S
C344        C345   1.404       .  A
C344        H351   1.083       .  S
C345        C346   1.407       .  A
C346        H352   1.084       .  S
C353        C354   1.405       .  A
C353        C358   1.408       .  A
C354        C355   1.397       .  A
C354        H363   1.083       .  S
C355        C356   1.402       .  A
C355        H364   1.084       .  S
C356        C362   1.401       .  A
C356        C357   1.412       .  A
C357        C359   1.404       .  A
C357        C358   1.403       .  A
C358        H365   1.084       .  S
C359        C360   1.399       .  A
C359        H366   1.084       .  S
C360        C361   1.405       .  A
C360        H367   1.083       .  S
C361        C362   1.407       .  A
C362        H368   1.085       .  S
C369        C370   1.406   1_455  A
C369        C374   1.414       .  A
C370        C371   1.404       .  A
C370        H379   1.083       .  S
C371        C372   1.406       .  A
C371        H380   1.083       .  S
C372        C378   1.411   1_554  A
C372        C373   1.411   1_655  A
C373        C375   1.404   1_554  A
C373        C374   1.407       .  A
C374        H381   1.084       .  S
C375        C376   1.400   1_455  A
C375        H382   1.084       .  S
C376        C377   1.407       .  A
C376        H383   1.083       .  S
C377        C378   1.413       .  A
C378        H384   1.084       .  S
C385        C386   1.407       .  A
C385        C390   1.406       .  A
C386        C387   1.397       .  A
C386        H395   1.083       .  S
C387        C388   1.401   1_545  A
C387        H396   1.084   1_545  S
C388        C394   1.404       .  A
C388        C389   1.415   1_565  A
C389        C391   1.401   1_545  A
C389        C390   1.403       .  A
C390        H397   1.084       .  S
C391        C392   1.396       .  A
C391        H398   1.084   1_565  S
C392        C393   1.406       .  A
C392        H399   1.083       .  S
C393        C394   1.405       .  A
C394        H400   1.084       .  S
C401        C402   1.406       .  A
C401        C406   1.414       .  A
C402        C403   1.401       .  A
C402        H411   1.083       .  S
C403        C404   1.404       .  A
C403        H412   1.084       .  S
C404        C410   1.407       .  A
C404        C405   1.411       .  A
C405        C407   1.405       .  A
C405        C406   1.409       .  A
C406        H413   1.084       .  S
C407        C408   1.403       .  A
C407        H414   1.084       .  S
C408        C409   1.406       .  A
C408        H415   1.083       .  S
C409        C410   1.413       .  A
C410        H416   1.084       .  S
C417        C418   1.401       .  A
C417        C422   1.411       .  A
C418        C419   1.398       .  A
C418        H427   1.083       .  S
C419        C420   1.406       .  A
C419        H428   1.083       .  S
C420        C426   1.397   1_554  A
C420        C421   1.408       .  A
C421        C423   1.405       .  A
C421        C422   1.396       .  A
C422        H429   1.084       .  S
C423        C424   1.398   1_554  A
C423        H430   1.083       .  S
C424        C425   1.402       .  A
C424        H431   1.083       .  S
C425        C426   1.411       .  A
C426        H432   1.084       .  S
C433        C434   1.406       .  A
C433        C438   1.413       .  A
C434        C435   1.396       .  A
C434        H443   1.083       .  S
C435        C436   1.401       .  A
C435        H444   1.084       .  S
C436        C442   1.403       .  A
C436        C437   1.413       .  A
C437        C439   1.408       .  A
C437        C438   1.410       .  A
C438        H445   1.084       .  S
C439        C440   1.405       .  A
C439        H446   1.084       .  S
C440        C441   1.402       .  A
C440        H447   1.083       .  S
C441        C442   1.403       .  A
C442        H448   1.085       .  S
C449        C450   1.404       .  A
C449        C454   1.406       .  A
C450        C451   1.401       .  A
C450        H459   1.083       .  S
C451        C452   1.406   1_655  A
C451        H460   1.084       .  S
C452        C458   1.405       .  A
C452        C453   1.413   1_455  A
C453        C455   1.402   1_655  A
C453        C454   1.397       .  A
C454        H461   1.085       .  S
C455        C456   1.394       .  A
C455        H462   1.084   1_455  S
C456        C457   1.400       .  A
C456        H463   1.084       .  S
C457        C458   1.405       .  A
C458        H464   1.085       .  S
C465        C466   1.406       .  A
C465        C470   1.406       .  A
C466        C467   1.395   1_545  A
C466        H475   1.083       .  S
C467        C468   1.401       .  A
C467        H476   1.084       .  S
C468        C474   1.402       .  A
C468        C469   1.414   1_565  A
C469        C471   1.402   1_545  A
C469        C470   1.405       .  A
C470        H477   1.084       .  S
C471        C472   1.398       .  A
C471        H478   1.083   1_565  S
C472        C473   1.406       .  A
C472        H479   1.083       .  S
C473        C474   1.406       .  A
C474        H480   1.084       .  S
C481        C482   1.402       .  A
C481        C486   1.414       .  A
C482        C483   1.395       .  A
C482        H491   1.083       .  S
C483        C484   1.403       .  A
C483        H492   1.083       .  S
C484        C490   1.397       .  A
C484        C485   1.409       .  A
C485        C487   1.407       .  A
C485        C486   1.404       .  A
C486        H493   1.084       .  S
C487        C488   1.403       .  A
C487        H494   1.083       .  S
C488        C489   1.404       .  A
C488        H495   1.083       .  S
C489        C490   1.410       .  A
C490        H496   1.084       .  S
C497        C498   1.402       .  A
C497        C502   1.406       .  A
C498        C499   1.393       .  A
C498        H507   1.083       .  S
C499        C500   1.401       .  A
C499        H508   1.084       .  S
C500        C506   1.394   1_554  A
C500        C501   1.413       .  A
C501        C503   1.403   1_554  A
C501        C502   1.397       .  A
C502        H509   1.085       .  S
C503        C504   1.396       .  A
C503        H510   1.084       .  S
C504        C505   1.403       .  A
C504        H511   1.083       .  S
C505        C506   1.402       .  A
C506        H512   1.085       .  S
C513        C514   1.407       .  A
C513        C518   1.412       .  A
C514        C515   1.391       .  A
C514        H523   1.083       .  S
C515        C516   1.398       .  A
C515        H524   1.084       .  S
C516        C522   1.398       .  A
C516        C517   1.413       .  A
C517        C519   1.408       .  A
C517        C518   1.411       .  A
C518        H525   1.084       .  S
C519        C520   1.406       .  A
C519        H526   1.083       .  S
C520        C521   1.404   1_655  A
C520        H527   1.083   1_655  S
C521        C522   1.402   1_455  A
C522        H528   1.085       .  S
C529        C530   1.400       .  A
C529        C534   1.405       .  A
C530        C531   1.395       .  A
C530        H539   1.084       .  S
C531        C532   1.403       .  A
C531        H540   1.084       .  S
C532        C538   1.397       .  A
C532        C533   1.413       .  A
C533        C535   1.405       .  A
C533        C534   1.403       .  A
C534        H541   1.085       .  S
C535        C536   1.401       .  A
C535        H542   1.084       .  S
C536        C537   1.403       .  A
C536        H543   1.083       .  S
C537        C538   1.406       .  A
C538        H544   1.085       .  S
C545        C546   1.407       .  A
C545        C550   1.411       .  A
C546        C547   1.396       .  A
C546        H555   1.083       .  S
C547        C548   1.401       .  A
C547        H556   1.084       .  S
C548        C554   1.405   1_554  A
C548        C549   1.413       .  A
C549        C551   1.406   1_554  A
C549        C550   1.411       .  A
C550        H557   1.084       .  S
C551        C552   1.404       .  A
C551        H558   1.083       .  S
C552        C553   1.406       .  A
C552        H559   1.083       .  S
C553        C554   1.410       .  A
C554        H560   1.084       .  S
