geometry optimzed in LAMMPS
_audit_creation_date              2020-12-01 
_audit_creation_method            'lammps2cif' 
_symmetry_space_group_name_H-M    'P1' 
_symmetry_Int_Tables_number       1 
_symmetry_cell_setting            triclinic 
loop_ 
_symmetry_equiv_pos_as_xyz 
  x,y,z 
_cell_length_a                    42.78542166 
_cell_length_b                    34.719473696551646 
_cell_length_c                    45.62213005890623 
_cell_angle_alpha                 89.98569648725146 
_cell_angle_beta                  107.27493607961856 
_cell_angle_gamma                 90.50518029865523 
loop_ 
_atom_site_label 
_atom_site_type_symbol 
_atom_site_fract_x 
_atom_site_fract_y 
_atom_site_fract_z 
_atom_site_charge 
Fe1        Fe  0.39196991  0.58490060  0.37898680     1.65800
Fe2        Fe  0.33384215  0.51745496  0.37383181     1.73200
Fe3        Fe  0.31428407  0.60576474  0.33987413     1.54400
O4          O  0.33160965  0.65323510  0.36811326    -0.81900
O5          O  0.30951376  0.50585852  0.32827279    -0.80200
O6          O  0.38434518  0.64313957  0.37734056    -0.84400
O7          O  0.39168597  0.58598366  0.33324767    -0.79200
O8          O  0.27885810  0.59505855  0.36171866    -0.81000
O9          O  0.37407543  0.48821233  0.36802803    -0.83800
C10         C  0.37055389  0.60208371  0.31069977     0.97000
C11         C  0.36089756  0.66568512  0.37521110     1.04400
O12         O  0.34622240  0.56928860  0.36453042    -1.12700
O13         O  0.35727705  0.52830751  0.42024934    -0.75200
O14         O  0.38876487  0.58184893  0.42353854    -0.78700
O15         O  0.34514970  0.61846107  0.31378193    -0.79400
C16         C  0.37464813  0.55607897  0.43552952     0.95900
O17         O  0.41294284  0.53154809  0.38462935    -0.77300
O18         O  0.29044192  0.53552082  0.37990251    -0.82500
C19         C  0.29397736  0.52750090  0.30630916     0.98500
C20         C  0.27155095  0.56426270  0.37338948     1.04400
O21         O  0.29359483  0.56392746  0.30828030    -0.78200
C22         C  0.40404676  0.49732246  0.37750848     1.02700
Fe23       Fe  0.36285708  0.58724713  0.11857792     1.65800
Fe24       Fe  0.42133828  0.52142237  0.12655317     1.73200
Fe25       Fe  0.44016037  0.60976430  0.16027697     1.54400
O26         O  0.42319383  0.65733079  0.13297050    -0.81900
O27         O  0.44564100  0.51055442  0.17195669    -0.80200
O28         O  0.37026042  0.64555620  0.12145477    -0.84400
O29         O  0.36078509  0.58764681  0.16362101    -0.79200
O30         O  0.47616890  0.60065238  0.13868565    -0.81000
O31         O  0.38102437  0.49260327  0.13345837    -0.83800
C32         C  0.38166847  0.60313743  0.18693268     0.97000
C33         C  0.39389034  0.66885234  0.12576669     1.04400
O34         O  0.40867170  0.57295600  0.13483147    -1.12700
O35         O  0.39798655  0.53063423  0.08013620    -0.75200
O36         O  0.36802438  0.58473983  0.07479555    -0.78700
O37         O  0.40805223  0.61957955  0.18561569    -0.79400
C38         C  0.38132931  0.55761087  0.06366772     0.95900
O39         O  0.34226589  0.53322312  0.11129396    -0.77300
O40         O  0.46446107  0.54103357  0.11998073    -0.82500
C41         C  0.46091961  0.53249042  0.19394745     0.98500
C42         C  0.48327575  0.57037603  0.12629511     1.04400
O43         O  0.46098774  0.56870336  0.19155031    -0.78200
C44         C  0.35110543  0.50017860  0.12152324     1.02700
Fe45       Fe  0.11165834  0.41341551  0.11733987     1.65800
Fe46       Fe  0.17085915  0.47974521  0.12430941     1.73200
Fe47       Fe  0.18863495  0.39092548  0.15720545     1.54400
O48         O  0.15655974  0.37901410  0.18247518    -0.81900
O49         O  0.21352567  0.46047782  0.11720005    -0.80200
O50         O  0.11028765  0.41215482  0.16250778    -0.84400
O51         O  0.11840147  0.35538666  0.11957877    -0.79200
O52         O  0.21007241  0.43155418  0.18941028    -0.81000
O53         O  0.14699339  0.47023947  0.07796854    -0.83800
C54         C  0.14158648  0.33256161  0.12178130     0.97000
C55         C  0.13060234  0.39486272  0.18495821     1.04400
O56         O  0.15757593  0.42820258  0.13286251    -1.12700
O57         O  0.13085692  0.50892012  0.13097472    -0.75200
O58         O  0.09171296  0.46701695  0.11077928    -0.78700
O59         O  0.17085761  0.34465506  0.12812337    -0.79400
C60         C  0.10083976  0.50070741  0.11937476     0.95900
O61         O  0.11626889  0.41606434  0.07354962    -0.77300
O62         O  0.19614898  0.49024507  0.16984006    -0.82500
C63         C  0.23194070  0.43124033  0.12335724     0.98500
C64         C  0.21116043  0.46795738  0.19156043     1.04400
O65         O  0.22467827  0.40107029  0.13586408    -0.78200
C66         C  0.13026519  0.44245667  0.06214022     1.02700
Fe67       Fe  0.13925335  0.40588992  0.37741120     1.65800
Fe68       Fe  0.08194556  0.47329004  0.37183366     1.73200
Fe69       Fe  0.06006041  0.38534398  0.33870650     1.54400
O70         O  0.08802425  0.37818915  0.30911543    -0.81900
O71         O  0.03829115  0.45422632  0.37788947    -0.80200
O72         O  0.13854510  0.40262460  0.33137960    -0.84400
O73         O  0.13116477  0.34812354  0.37699323    -0.79200
O74         O  0.03589678  0.42761982  0.31015976    -0.81000
O75         O  0.10509495  0.46349130  0.41796697    -0.83800
C76         C  0.10769429  0.32456755  0.37172183     0.97000
C77         C  0.11587095  0.39029597  0.30781452     1.04400
O78         O  0.09356596  0.42131958  0.36303638    -1.12700
O79         O  0.12281928  0.50239475  0.36638354    -0.75200
O80         O  0.16116776  0.45889281  0.38172050    -0.78700
O81         O  0.07841832  0.33590522  0.36274404    -0.79400
C82         C  0.15265050  0.49309370  0.37516994     0.95900
O83         O  0.13723265  0.41108051  0.42256322    -0.77300
O84         O  0.05841775  0.48458272  0.32631101    -0.82500
C85         C  0.02083078  0.42382997  0.37512814     0.98500
C86         C  0.03907364  0.46323631  0.30618318     1.04400
O87         O  0.02853274  0.39226144  0.36506391    -0.78200
C88         C  0.12359352  0.43762428  0.43405703     1.02700
Fe89       Fe  0.38967595  0.90703347  0.13023839     1.65800
Fe90       Fe  0.33410701  0.97636341  0.12538658     1.73200
Fe91       Fe  0.31046559  0.88942176  0.09094785     1.54400
O92         O  0.34062107  0.87666532  0.06388057    -0.81900
O93         O  0.28887867  0.96147721  0.12801855    -0.80200
O94         O  0.38957882  0.90487207  0.08486857    -0.84400
O95         O  0.37918381  0.84965930  0.12817204    -0.79200
O96         O  0.29186980  0.93249643  0.06083383    -0.81000
O97         O  0.35373204  0.96198174  0.17176077    -0.83800
C98         C  0.35482108  0.82765032  0.12442583     0.97000
C99         C  0.36797359  0.88980331  0.06194988     1.04400
O100        O  0.34448236  0.92423172  0.11588925    -1.12700
O101        O  0.37638050  0.00442307  0.12335344    -0.75200
O102        O  0.41334719  0.95916801  0.13587337    -0.78700
O103        O  0.32587726  0.84051342  0.11735905    -0.79400
C104        C  0.40579368  0.99397828  0.13117852     0.95900
O105        O  0.38697392  0.91059813  0.17473406    -0.77300
O106        O  0.31381809  0.98925618  0.07939507    -0.82500
C107        C  0.26909887  0.93342271  0.12387870     0.98500
C108        C  0.29645559  0.96815795  0.05765092     1.04400
O109        O  0.27540842  0.90106544  0.11375406    -0.78200
C110        C  0.37149471  0.93448713  0.18664037     1.02700
Fe111      Fe  0.36118495  0.90881945  0.37121581     1.65800
Fe112      Fe  0.41876298  0.97774348  0.37539256     1.73200
Fe113      Fe  0.43980906  0.89171010  0.41202516     1.54400
O114        O  0.40929560  0.88157804  0.43908317    -0.81900
O115        O  0.46313475  0.96063380  0.37252368    -0.80200
O116        O  0.35982880  0.90643940  0.41615907    -0.84400
O117        O  0.37017517  0.85130013  0.37287795    -0.79200
O118        O  0.46017910  0.93615999  0.44140739    -0.81000
O119        O  0.39867692  0.96258255  0.32935606    -0.83800
C120        C  0.39399476  0.82878179  0.37783104     0.97000
C121        C  0.38114925  0.89285094  0.43972867     1.04400
O122        O  0.40676240  0.92617072  0.38612405    -1.12700
O123        O  0.37707408  0.00689068  0.37688480    -0.75200
O124        O  0.33949478  0.96126622  0.36604885    -0.78700
O125        O  0.42328067  0.84131833  0.38700612    -0.79400
C126        C  0.34752203  0.99621034  0.36956718     0.95900
O127        O  0.36420393  0.91195131  0.32677571    -0.77300
O128        O  0.44052074  0.99288886  0.42087685    -0.82500
C129        C  0.48165338  0.93175193  0.37701017     0.98500
C130        C  0.45758175  0.97243231  0.44297602     1.04400
O131        O  0.47455699  0.90056121  0.38844237    -0.78200
C132        C  0.38020152  0.93525531  0.31470322     1.02700
Fe133      Fe  0.13899556  0.09137800  0.13083708     1.65800
Fe134      Fe  0.08113859  0.02393930  0.12528077     1.73200
Fe135      Fe  0.06137442  0.11222902  0.09145202     1.54400
O136        O  0.07890806  0.15931908  0.11965996    -0.81900
O137        O  0.05317824  0.01309013  0.08045827    -0.80200
O138        O  0.13165462  0.14933744  0.12916096    -0.84400
O139        O  0.13963104  0.09332732  0.08548103    -0.79200
O140        O  0.02666534  0.10153496  0.11408039    -0.81000
O141        O  0.11981194  0.99508754  0.11571563    -0.83800
C142        C  0.11874609  0.10955094  0.06282269     0.97000
C143        C  0.10810022  0.17178328  0.12650100     1.04400
O144        O  0.09329737  0.07577714  0.11589289    -1.12700
O145        O  0.10758777  0.03257666  0.17144764    -0.75200
O146        O  0.13595743  0.08838320  0.17545476    -0.78700
O147        O  0.09235775  0.12437774  0.06509502    -0.79400
C148        C  0.12415646  0.06043405  0.18731571     0.95900
O149        O  0.15849769  0.03753002  0.13580777    -0.77300
O150        O  0.04019841  0.04350498  0.13499332    -0.82500
C151        C  0.03805212  0.03458005  0.05823902     0.98500
C152        C  0.02087307  0.07184944  0.12805592     1.04400
O153        O  0.03958323  0.07100363  0.05982262    -0.78200
C154        C  0.14978420  0.00385824  0.12645376     1.02700
Fe155      Fe  0.11442562  0.08154829  0.37402681     1.65800
Fe156      Fe  0.17263869  0.01540586  0.37826448     1.73200
Fe157      Fe  0.19306214  0.10432296  0.41025292     1.54400
O158        O  0.17335529  0.15196528  0.38446939    -0.81900
O159        O  0.19561711  0.00472041  0.42412385    -0.80200
O160        O  0.12093479  0.13947616  0.37408547    -0.84400
O161        O  0.11570926  0.08557583  0.41999556    -0.79200
O162        O  0.22403075  0.09766232  0.38353017    -0.81000
O163        O  0.13247610  0.98374508  0.38245903    -0.83800
C164        C  0.13820024  0.10047834  0.44248996     0.97000
C165        C  0.14404780  0.16312085  0.37729759     1.04400
O166        O  0.16013365  0.06697627  0.38749061    -1.12700
O167        O  0.15021984  0.02661622  0.33195791    -0.75200
O168        O  0.11636056  0.07706174  0.32888584    -0.78700
O169        O  0.16550020  0.11283413  0.44005049    -0.79400
C170        C  0.13176141  0.05324207  0.31668502     0.95900
O171        O  0.09455002  0.02796711  0.37084235    -0.77300
O172        O  0.21587811  0.03524611  0.37279027    -0.82500
C173        C  0.21451535  0.02706407  0.44381744     0.98500
C174        C  0.23233737  0.06608755  0.37421404     1.04400
O175        O  0.21782737  0.06269803  0.43947259    -0.78200
C176        C  0.10283030  0.99334908  0.37528356     1.02700
C177        C  0.12894247  0.05982190  0.22091801    -0.00400
C178        C  0.12170111  0.09261058  0.23565559    -0.12200
C179        C  0.12198881  0.09132493  0.26659153     0.01900
C180        C  0.12935890  0.05644096  0.28336103    -0.00500
C181        C  0.13765170  0.02415168  0.26860593    -0.12200
C182        C  0.13773974  0.02565997  0.23796878     0.01800
H183        H  0.11517475  0.11913150  0.22279115     0.14700
H184        H  0.14434991  0.99740004  0.28108954     0.14700
C185        C  0.14825398  0.99212040  0.22482777     0.36400
C186        C  0.11583576  0.12658461  0.28066296     0.36300
N187        N  0.15696193  0.96546478  0.21428626    -0.44000
N188        N  0.11110013  0.15490336  0.29197701    -0.44000
C189        C  0.12462824  0.11086912  0.03223603    -0.00400
C190        C  0.15674540  0.10867422  0.03055576    -0.12200
C191        C  0.15898431  0.10007300  0.50085660     0.01900
C192        C  0.13300513  0.10375408  0.47315737    -0.00500
C193        C  0.10163839  0.11174900  0.47490486    -0.12200
C194        C  0.09857558  0.11288393  0.00440409     0.01800
H195        H  0.17697490  0.10750039  0.05151215     0.14700
H196        H  0.08180092  0.11588363  0.45394568     0.14700
C197        C  0.06473495  0.11612195  0.00364804     0.36400
C198        C  0.19259296  0.09498378  0.50136816     0.36300
N199        N  0.03753842  0.11935767  0.00259761    -0.44000
N200        N  0.21983569  0.09195747  0.50250936    -0.44000
C201        C  0.47611806  0.99063494  0.47209646    -0.00400
C202        C  0.47347677  0.97473584  0.49961603    -0.12200
C203        C  0.52199165  0.97806192  0.02074111     0.01900
C204        C  0.01741189  0.01737845  0.02897275    -0.00500
C205        C  0.99503361  0.04116777  0.00784977    -0.12200
C206        C  0.99933160  0.01856045  0.47373744     0.01800
H207        H  0.45573276  0.95192281  0.49881034     0.14700
H208        H  0.99205904  0.07083730  0.01374668     0.14700
C209        C  0.00382673  0.03576430  0.44643883     0.36400
C210        C  0.54559639  0.95205002  0.03978856     0.36300
N211        N  0.00771726  0.04978631  0.42475713    -0.44000
N212        N  0.56407588  0.93078048  0.05506300    -0.44000
C213        C  0.32067087  0.02433615  0.36499523    -0.00400
C214        C  0.32228630  0.05318646  0.38699954    -0.12200
C215        C  0.29372453  0.07215015  0.38811630     0.01900
C216        C  0.26335632  0.06254468  0.36656287    -0.00500
C217        C  0.26292787  0.03814675  0.34202105    -0.12200
C218        C  0.29098219  0.01857179  0.34129868     0.01800
H219        H  0.34502571  0.05813701  0.40506176     0.14700
H220        H  0.23973288  0.03099716  0.32519220     0.14700
C221        C  0.28769859  0.99010092  0.31743934     0.36400
C222        C  0.29557177  0.09756040  0.41363900     0.36300
N223        N  0.28466723  0.96698504  0.29850714    -0.44000
N224        N  0.29705635  0.11791312  0.43410613    -0.44000
C225        C  0.07553525  0.96503017  0.37040738    -0.00400
C226        C  0.04736303  0.97358755  0.34643522    -0.12200
C227        C  0.01675069  0.95963841  0.34626437     0.01900
C228        C  0.01389376  0.93365253  0.36939384    -0.00500
C229        C  0.04287068  0.92009499  0.39054626    -0.12200
C230        C  0.07364582  0.93605083  0.39153711     0.01800
H231        H  0.04876227  0.99503243  0.32945256     0.14700
H232        H  0.04124256  0.90016355  0.40840673     0.14700
C233        C  0.10209454  0.92481332  0.41594316     0.36400
C234        C  0.48717216  0.97947244  0.32470365     0.36300
N235        N  0.12477916  0.91536009  0.43553302    -0.44000
N236        N  0.46477606  0.99311259  0.30706084    -0.44000
C237        C  0.23348898  0.01244869  0.47376545    -0.00400
C238        C  0.26697089  0.02189975  0.48436024    -0.12200
C239        C  0.28309297  0.02326207  0.01924313     0.01900
C240        C  0.28000998  0.98440474  0.02697479    -0.00500
C241        C  0.26020147  0.95944276  0.00448842    -0.12200
C242        C  0.21806190  0.99526683  0.49379995     0.01800
H243        H  0.27862343  0.03619356  0.46912101     0.14700
H244        H  0.25858699  0.92901730  0.00917498     0.14700
C245        C  0.18305623  0.98911779  0.48499922     0.36400
C246        C  0.30497795  0.05006555  0.03980991     0.36300
N247        N  0.15495898  0.98479088  0.47814380    -0.44000
N248        N  0.32258000  0.07158877  0.05617841    -0.44000
C249        C  0.37454196  0.89153064  0.47002768    -0.00400
C250        C  0.40110558  0.88458172  0.49644123    -0.12200
C251        C  0.40397668  0.89784951  0.02648107     0.01900
C252        C  0.37354459  0.88846808  0.03113697    -0.00500
C253        C  0.34673551  0.87975540  0.00514245    -0.12200
C254        C  0.34356050  0.89926623  0.47386612     0.01800
H255        H  0.42510428  0.87810522  0.49429847     0.14700
H256        H  0.32303822  0.87255909  0.00791698     0.14700
C257        C  0.31461127  0.90473404  0.44816503     0.36400
C258        C  0.43291475  0.90673004  0.05151881     0.36300
N259        N  0.29129219  0.90898269  0.42767057    -0.44000
N260        N  0.45618450  0.91390871  0.07147643    -0.44000
C261        C  0.37348265  0.93002393  0.21931654    -0.00400
C262        C  0.40393564  0.92576766  0.24144607    -0.12200
C263        C  0.40600278  0.92395130  0.27264505     0.01900
C264        C  0.37789125  0.93035368  0.28206376    -0.00500
C265        C  0.34726091  0.93088240  0.25992792    -0.12200
C266        C  0.34492389  0.92852266  0.22874670     0.01800
H267        H  0.42580777  0.92281850  0.23436876     0.14700
H268        H  0.32526767  0.93165184  0.26699823     0.14700
C269        C  0.31386958  0.91748059  0.20764702     0.36400
C270        C  0.43576069  0.90993950  0.29391833     0.36300
N271        N  0.28923281  0.90623015  0.19153802    -0.44000
N272        N  0.45918278  0.89685763  0.31043747    -0.44000
C273        C  0.43274735  0.02245959  0.13471226    -0.00400
C274        C  0.43168798  0.04863337  0.11099643    -0.12200
C275        C  0.46010250  0.06857358  0.10988663     0.01900
C276        C  0.48994894  0.06346900  0.13355105    -0.00500
C277        C  0.48959644  0.04104774  0.15909888    -0.12200
C278        C  0.46169412  0.02007330  0.15959823     0.01800
H279        H  0.40955232  0.05063528  0.09180122     0.14700
H280        H  0.51219403  0.03687374  0.17745085     0.14700
C281        C  0.46415098  0.99424388  0.18501687     0.36400
C282        C  0.45878796  0.08965842  0.08226498     0.36300
N283        N  0.46626804  0.97329218  0.20523530    -0.44000
N284        N  0.45757802  0.10619109  0.05992885    -0.44000
C285        C  0.23720874  0.94146060  0.12980195    -0.00400
C286        C  0.20755955  0.92969362  0.10828146    -0.12200
C287        C  0.17757092  0.94733779  0.10741479     0.01900
C288        C  0.17684169  0.97582054  0.12937447    -0.00500
C289        C  0.20570877  0.98339256  0.15308311    -0.12200
C290        C  0.23564740  0.96851504  0.15263988     0.01800
H291        H  0.20824719  0.90981321  0.09022028     0.20300
H292        H  0.20555148  0.00447499  0.17056525     0.14700
C293        C  0.26438646  0.98572398  0.17394613     0.36400
C294        C  0.14904624  0.93850659  0.08207289     0.36300
N295        N  0.28694513  0.00064133  0.19075630    -0.44000
N296        N  0.12654165  0.93119271  0.06139532    -0.44000
C297        C  0.11591609  0.28278285  0.37452565    -0.00400
C298        C  0.14931879  0.27261098  0.38370679    -0.12200
C299        C  0.15926754  0.23436643  0.38358916     0.01900
C300        C  0.13560171  0.20474793  0.37427559    -0.00500
C301        C  0.10219017  0.21484096  0.36510039    -0.12200
C302        C  0.09222376  0.25311553  0.36527939     0.01800
H303        H  0.16805312  0.29463633  0.39074756     0.14700
H304        H  0.08352263  0.19273056  0.35809816     0.14700
C305        C  0.05749903  0.26058798  0.35580203     0.36400
C306        C  0.19397796  0.22677022  0.39357554     0.36300
N307        N  0.02964161  0.26635030  0.34825510    -0.44000
N308        N  0.22178328  0.22068850  0.40156041    -0.44000
C309        C  0.11554284  0.21362933  0.12811749    -0.00400
C310        C  0.09361888  0.23818800  0.10778777    -0.12200
C311        C  0.10228384  0.27641177  0.10388575     0.01900
C312        C  0.13368939  0.29084250  0.12045450    -0.00500
C313        C  0.15552422  0.26631617  0.14090033    -0.12200
C314        C  0.14661910  0.22831638  0.14520052     0.01800
H315        H  0.07006684  0.22716831  0.09408090     0.14700
H316        H  0.17901607  0.27737117  0.15471716     0.14700
C317        C  0.16944464  0.20562350  0.16830566     0.36400
C318        C  0.07842346  0.29990497  0.08239312     0.36300
N319        N  0.18776242  0.18776343  0.18703296    -0.44000
N320        N  0.05911786  0.31859171  0.06526724    -0.44000
C321        C  0.12783263  0.44126809  0.02909372    -0.00400
C322        C  0.12988689  0.47619377  0.01415712    -0.12200
C323        C  0.13180022  0.47422612  0.48353312     0.01900
C324        C  0.12788751  0.43881420  0.46752982    -0.00500
C325        C  0.12374398  0.40500912  0.48283962    -0.12200
C326        C  0.12607149  0.40630886  0.01272506     0.01800
H327        H  0.13182856  0.50319404  0.02649452     0.14700
H328        H  0.12071999  0.37771524  0.47077855     0.14700
C329        C  0.12565945  0.36925815  0.02696678     0.36400
C330        C  0.13817112  0.50974080  0.46970146     0.36300
N331        N  0.12538622  0.33942714  0.03820665    -0.44000
N332        N  0.14342513  0.53813509  0.45865452    -0.44000
C333        C  0.12561130  0.39351925  0.21595776    -0.00400
C334        C  0.15323000  0.38698161  0.24156406    -0.12200
C335        C  0.15097578  0.38623924  0.27156384     0.01900
C336        C  0.12043935  0.39136535  0.27669595    -0.00500
C337        C  0.09283426  0.39821050  0.25120496    -0.12200
C338        C  0.09512153  0.39965001  0.22117344     0.01800
H339        H  0.17707057  0.38282589  0.23830620     0.14700
H340        H  0.06925836  0.40305104  0.25478574     0.14700
C341        C  0.06572584  0.40712049  0.19640604     0.36400
C342        C  0.18027550  0.37926472  0.29647730     0.36300
N343        N  0.04213335  0.41326543  0.17665183    -0.44000
N344        N  0.20375972  0.37368092  0.31647631    -0.44000
C345        C  0.38587273  0.71035474  0.12441677    -0.00400
C346        C  0.35759339  0.72290341  0.10189164    -0.12200
C347        C  0.34578385  0.76038099  0.10240649     0.01900
C348        C  0.36184086  0.78590055  0.12630211    -0.00500
C349        C  0.39003472  0.77326815  0.14889798    -0.12200
C350        C  0.40207207  0.73597723  0.14819387     0.01800
H351        H  0.34477080  0.70337015  0.08375623     0.14700
H352        H  0.40300860  0.79287816  0.16691699     0.14700
C353        C  0.43017429  0.72434377  0.17295559     0.36400
C354        C  0.31862069  0.77265128  0.07698248     0.36300
N355        N  0.45263376  0.71516757  0.19291174    -0.44000
N356        N  0.29705854  0.78248785  0.05641819    -0.44000
C357        C  0.01904125  0.48010182  0.27694574    -0.00400
C358        C  0.01642105  0.52024371  0.27474308    -0.12200
C359        C  0.99764667  0.53778308  0.24787068     0.01900
C360        C  0.48019379  0.51539037  0.22340659    -0.00500
C361        C  0.48219077  0.47514701  0.22557967    -0.12200
C362        C  0.50147528  0.45733288  0.25206587     0.01800
H363        H  0.02868375  0.53815054  0.29425600     0.14700
H364        H  0.46908800  0.45730650  0.20632311     0.14700
C365        C  0.50284573  0.41574840  0.25167004     0.36400
C366        C  0.99529039  0.57927133  0.24837808     0.36300
N367        N  0.50380577  0.38245835  0.25106107    -0.44000
N368        N  0.99328447  0.61246024  0.24911197    -0.44000
C369        C  0.32466886  0.47114268  0.11927276    -0.00400
C370        C  0.29771297  0.47117893  0.09255199    -0.12200
C371        C  0.26801548  0.45337059  0.09194613     0.01900
C372        C  0.26463942  0.43537926  0.11854300    -0.00500
C373        C  0.29266190  0.43122208  0.14401050    -0.12200
C374        C  0.32263232  0.44882474  0.14454101     0.01800
H375        H  0.29922362  0.48729793  0.07260846     0.14700
H376        H  0.29037835  0.41746965  0.16465800     0.14700
C377        C  0.34974131  0.44682571  0.17230626     0.36400
C378        C  0.24072213  0.45555922  0.06429425     0.36300
N379        N  0.37151260  0.44510727  0.19453536    -0.44000
N380        N  0.21884645  0.45698145  0.04212956    -0.44000
C381        C  0.01589196  0.56520468  0.11848959    -0.00400
C382        C  0.01719077  0.54580230  0.09193800    -0.12200
C383        C  0.04605770  0.52827134  0.09050151     0.01900
C384        C  0.07450702  0.52956351  0.11619709    -0.00500
C385        C  0.07437634  0.55289563  0.14127201    -0.12200
C386        C  0.04533253  0.57058920  0.14266064     0.01800
H387        H  0.99486878  0.54173088  0.07314494     0.14700
H388        H  0.09601644  0.55424988  0.16105827     0.14700
C389        C  0.04555616  0.58993291  0.17072298     0.36400
C390        C  0.04518853  0.50694212  0.06304295     0.36300
N391        N  0.54681761  0.60962411  0.19449543    -0.44000
N392        N  0.04441464  0.48980752  0.04107240    -0.44000
C393        C  0.36862413  0.70772830  0.37833868    -0.00400
C394        C  0.34678752  0.73340408  0.35912328    -0.12200
C395        C  0.35528426  0.77223987  0.35714937     0.01900
C396        C  0.38627585  0.78664217  0.37510121    -0.00500
C397        C  0.40805496  0.76095504  0.39445416    -0.12200
C398        C  0.39959164  0.72202985  0.39625825     0.01800
H399        H  0.32343425  0.72279498  0.34460630     0.14700
H400        H  0.43140710  0.77151554  0.40899498     0.14700
C401        C  0.42306327  0.69769913  0.41731743     0.36400
C402        C  0.33177944  0.79623044  0.33576036     0.36300
N403        N  0.44199951  0.67836799  0.43421194    -0.44000
N404        N  0.31283159  0.81528361  0.31860671    -0.44000
C405        C  0.23187313  0.48427579  0.22071089    -0.00400
C406        C  0.23441936  0.46398068  0.24797813    -0.12200
C407        C  0.25557267  0.47655313  0.27598430     0.01900
C408        C  0.27440213  0.51032482  0.27704210    -0.00500
C409        C  0.27222999  0.53030559  0.24970656    -0.12200
C410        C  0.25153456  0.51730302  0.22160763     0.01800
H411        H  0.21978023  0.43822810  0.24742276     0.14700
H412        H  0.28697572  0.55595610  0.25027380     0.14700
C413        C  0.25239217  0.53691982  0.19392203     0.36400
C414        C  0.25659401  0.45504592  0.30334664     0.36300
N415        N  0.25301967  0.55207218  0.17150647    -0.44000
N416        N  0.25772968  0.43794834  0.32540748    -0.44000
C417        C  0.37405819  0.60149973  0.27908311    -0.00400
C418        C  0.34632263  0.61020970  0.25401173    -0.12200
C419        C  0.34755886  0.60959048  0.22364043     0.01900
C420        C  0.37714727  0.60096671  0.21779628    -0.00500
C421        C  0.40452384  0.59125426  0.24250170    -0.12200
C422        C  0.40324185  0.59100344  0.27279202     0.01800
H423        H  0.32328872  0.61745819  0.25799625     0.14700
H424        H  0.42726042  0.58365388  0.23803547     0.14700
C425        C  0.43236786  0.58008121  0.29665546     0.36400
C426        C  0.31864215  0.61932929  0.19909007     0.36300
N427        N  0.45572392  0.57107724  0.31567333    -0.44000
N428        N  0.29553258  0.62716565  0.17933541    -0.44000
C429        C  0.37735961  0.55849167  0.46865081    -0.00400
C430        C  0.38234495  0.52458131  0.48601312    -0.12200
C431        C  0.38264878  0.52348740  0.01468883     0.01900
C432        C  0.37839127  0.55747148  0.03030614    -0.00500
C433        C  0.37280313  0.59234716  0.01393223    -0.12200
C434        C  0.37164780  0.59308437  0.48241455     0.01800
H435        H  0.38602997  0.49772524  0.47541351     0.14700
H436        H  0.36937259  0.61861512  0.02538567     0.14700
C437        C  0.36374869  0.62815424  0.46484936     0.36400
C438        C  0.38699247  0.48605947  0.02915154     0.36300
N439        N  0.35715612  0.65604970  0.45053587    -0.44000
N440        N  0.39049776  0.45601533  0.04061014    -0.44000
C441        C  0.48955785  0.43098540  0.38236961    -0.00400
C442        C  0.46043548  0.42289409  0.35880088    -0.12200
C443        C  0.43088683  0.44123410  0.35802793     0.01900
C444        C  0.43051008  0.46846265  0.38094315    -0.00500
C445        C  0.45865094  0.47255437  0.40631725    -0.12200
C446        C  0.48780830  0.45387926  0.40733047     0.01800
H447        H  0.46140045  0.40525128  0.33948159     0.14700
H448        H  0.45841802  0.49227550  0.42469383     0.14700
C449        C  0.51633187  0.46054555  0.43337390     0.36400
C450        C  0.40229046  0.43429948  0.33219666     0.36300
N451        N  0.53919777  0.46566841  0.45425110    -0.44000
N452        N  0.37929434  0.42854065  0.31158223    -0.44000
C453        C  0.23832735  0.55869112  0.37661856    -0.00400
C454        C  0.23548989  0.54215880  0.40374608    -0.12200
C455        C  0.20651439  0.52357446  0.40444962     0.01900
C456        C  0.17928288  0.52177399  0.37769158    -0.00500
C457        C  0.18103366  0.54143266  0.35136032    -0.12200
C458        C  0.21037287  0.55932743  0.35045627     0.01800
H459        H  0.25690259  0.54098387  0.42379204     0.14700
H460        H  0.16055389  0.53951945  0.33052334     0.14700
C461        C  0.21246941  0.57317344  0.32123216     0.36400
C462        C  0.20627956  0.50411603  0.43237513     0.36300
N463        N  0.21423712  0.58381688  0.29772894    -0.44000
N464        N  0.20657279  0.48845025  0.45484779    -0.44000
Fe465      Fe  0.38788265  0.58751376  0.87746826     1.65800
Fe466      Fe  0.32988672  0.52047930  0.87322994     1.73200
Fe467      Fe  0.30995595  0.60878169  0.83974530     1.54400
O468        O  0.32833876  0.65669402  0.86698646    -0.81900
O469        O  0.30247944  0.50866918  0.82846087    -0.80200
O470        O  0.38079661  0.64572511  0.87499917    -0.84400
O471        O  0.38680890  0.58767704  0.83155255    -0.79200
O472        O  0.27597454  0.59871612  0.86323530    -0.81000
O473        O  0.36916104  0.49209362  0.86435400    -0.83800
C474        C  0.36540540  0.60386416  0.80922473     0.97000
C475        C  0.35767680  0.66861300  0.87315616     1.04400
O476        O  0.34200860  0.57222757  0.86371162    -1.12700
O477        O  0.35587139  0.53069314  0.91912863    -0.75200
O478        O  0.38526425  0.58578229  0.92209953    -0.78700
O479        O  0.33999033  0.62001164  0.81258853    -0.79400
C480        C  0.37253164  0.55896697  0.93432555     0.95900
O481        O  0.40859464  0.53385384  0.88402250    -0.77300
O482        O  0.28783035  0.53927182  0.88190003    -0.82500
C483        C  0.28667371  0.53068346  0.80694224     0.98500
C484        C  0.26899832  0.56817385  0.87549727     1.04400
O485        O  0.28760601  0.56709668  0.80886501    -0.78200
C486        C  0.39929681  0.50033353  0.87483444     1.02700
Fe487      Fe  0.35855997  0.59247814  0.61728972     1.65800
Fe488      Fe  0.41650800  0.52672838  0.62837997     1.73200
Fe489      Fe  0.43502294  0.61564047  0.66060095     1.54400
O490        O  0.41816595  0.66209095  0.63195968    -0.81900
O491        O  0.44062033  0.51736658  0.67391207    -0.80200
O492        O  0.36557615  0.65052591  0.62110720    -0.84400
O493        O  0.35503670  0.59260575  0.66184489    -0.79200
O494        O  0.47142536  0.60570272  0.63981248    -0.81000
O495        O  0.37589253  0.49983447  0.63624063    -0.83800
C496        C  0.37541699  0.60835843  0.68540082     0.97000
C497        C  0.38903157  0.67398494  0.62542257     1.04400
O498        O  0.40410502  0.57850042  0.63519408    -1.12700
O499        O  0.39361029  0.53415458  0.58152925    -0.75200
O500        O  0.36589570  0.58994483  0.57421914    -0.78700
O501        O  0.40167182  0.62568163  0.68463414    -0.79400
C502        C  0.37867447  0.56139869  0.56408523     0.95900
O503        O  0.33836263  0.53840729  0.60886390    -0.77300
O504        O  0.45955747  0.54570179  0.62167332    -0.82500
C505        C  0.45618958  0.53940777  0.69566782     0.98500
C506        C  0.47838164  0.57504262  0.62779323     1.04400
O507        O  0.45621890  0.57565357  0.69311570    -0.78200
C508        C  0.34633164  0.50669384  0.62208013     1.02700
Fe509      Fe  0.10669367  0.41658701  0.61737320     1.65800
Fe510      Fe  0.16522695  0.48344580  0.62381850     1.73200
Fe511      Fe  0.18381076  0.39497983  0.65729253     1.54400
O512        O  0.15164024  0.38119847  0.68188292    -0.81900
O513        O  0.20747944  0.46494987  0.61597784    -0.80200
O514        O  0.10582290  0.41508007  0.66272044    -0.84400
O515        O  0.11418692  0.35856258  0.61937564    -0.79200
O516        O  0.20362904  0.43586634  0.68994797    -0.81000
O517        O  0.14103258  0.47372972  0.57727159    -0.83800
C518        C  0.13758411  0.33609879  0.62123148     0.97000
C519        C  0.12616449  0.39747226  0.68494798     1.04400
O520        O  0.15248794  0.43179988  0.63270623    -1.12700
O521        O  0.12578156  0.51171415  0.63191936    -0.75200
O522        O  0.08628624  0.47028564  0.61148854    -0.78700
O523        O  0.16683236  0.34861638  0.62780216    -0.79400
C524        C  0.09572379  0.50354527  0.62127115     0.95900
O525        O  0.11115576  0.41910887  0.57334868    -0.77300
O526        O  0.19095881  0.49427628  0.66921157    -0.82500
C527        C  0.22675941  0.43666683  0.62332322     0.98500
C528        C  0.20479661  0.47232812  0.69159540     1.04400
O529        O  0.22032417  0.40683603  0.63678253    -0.78200
C530        C  0.12538181  0.44504823  0.56171366     1.02700
Fe531      Fe  0.13770011  0.41061795  0.87711386     1.65800
Fe532      Fe  0.07948679  0.47704776  0.87201409     1.73200
Fe533      Fe  0.05871707  0.38897843  0.83837625     1.54400
O534        O  0.08706577  0.38210106  0.80930837    -0.81900
O535        O  0.03596855  0.45724064  0.87781421    -0.80200
O536        O  0.13748743  0.40714500  0.83154037    -0.84400
O537        O  0.13040461  0.35289244  0.87675538    -0.79200
O538        O  0.03453964  0.43145790  0.80949779    -0.81000
O539        O  0.10272502  0.46711555  0.91789626    -0.83800
C540        C  0.10736864  0.32878440  0.87133707     0.97000
C541        C  0.11490898  0.39431371  0.80825310     1.04400
O542        O  0.09177181  0.42537849  0.86282514    -1.12700
O543        O  0.11990915  0.50727679  0.86695295    -0.75200
O544        O  0.15851774  0.46391955  0.88123979    -0.78700
O545        O  0.07779306  0.33944345  0.86259807    -0.79400
C546        C  0.14975713  0.49817071  0.87553669     0.95900
O547        O  0.13572208  0.41558577  0.92189809    -0.77300
O548        O  0.05602783  0.48863294  0.82676723    -0.82500
C549        C  0.01848914  0.42682655  0.87439615     0.98500
C550        C  0.03727443  0.46740124  0.80618577     1.04400
O551        O  0.02650266  0.39548254  0.86420687    -0.78200
C552        C  0.12186311  0.44156762  0.93360068     1.02700
Fe553      Fe  0.38738205  0.91584102  0.62849826     1.65800
Fe554      Fe  0.33132374  0.98335076  0.62920739     1.73200
Fe555      Fe  0.30719974  0.89778296  0.59288502     1.54400
O556        O  0.33455248  0.88845860  0.56279577    -0.81900
O557        O  0.28658795  0.96660942  0.63291758    -0.80200
O558        O  0.38496044  0.91417786  0.58256901    -0.84400
O559        O  0.37778388  0.85870427  0.62630674    -0.79200
O560        O  0.28521246  0.94217553  0.56533374    -0.81000
O561        O  0.35276233  0.96604388  0.67443547    -0.83800
C562        C  0.35421865  0.83583589  0.62352774     0.97000
C563        C  0.36221550  0.89957678  0.56031975     1.04400
O564        O  0.34186516  0.93246669  0.61692802    -1.12700
O565        O  0.37309030  0.01333284  0.62740789    -0.75200
O566        O  0.41011611  0.96822135  0.63367110    -0.78700
O567        O  0.32512815  0.84799573  0.61725718    -0.79400
C568        C  0.40239265  0.00308833  0.63227496     0.95900
O569        O  0.38762754  0.91736271  0.67385812    -0.77300
O570        O  0.30886600  0.99864167  0.58395896    -0.82500
C571        C  0.26791141  0.93745270  0.62924062     0.98500
C572        C  0.28934713  0.97812952  0.56307261     1.04400
O573        O  0.27503061  0.90571007  0.61894357    -0.78200
C574        C  0.37193115  0.93868641  0.68744170     1.02700
Fe575      Fe  0.36331312  0.90910267  0.87180956     1.65800
Fe576      Fe  0.42148659  0.97720262  0.87494861     1.73200
Fe577      Fe  0.44248191  0.89114295  0.91060435     1.54400
O578        O  0.41306158  0.88119245  0.93873545    -0.81900
O579        O  0.46649101  0.96075463  0.87288032    -0.80200
O580        O  0.36310342  0.90612738  0.91724637    -0.84400
O581        O  0.37207849  0.85146500  0.87268176    -0.79200
O582        O  0.46323625  0.93539183  0.93932652    -0.81000
O583        O  0.40198030  0.96083650  0.82918349    -0.83800
C584        C  0.39590452  0.82904463  0.87670499     0.97000
C585        C  0.38519466  0.89234037  0.94022172     1.04400
O586        O  0.40914405  0.92588711  0.88567066    -1.12700
O587        O  0.37970751  0.00697677  0.87531011    -0.75200
O588        O  0.34163232  0.96196898  0.86715765    -0.78700
O589        O  0.42525723  0.84123262  0.88557621    -0.79400
C590        C  0.35012300  0.99686527  0.86943621     0.95900
O591        O  0.36556183  0.91228307  0.82715822    -0.77300
O592        O  0.44229996  0.99214730  0.92069912    -0.82500
C593        C  0.48472097  0.93166163  0.87667302     0.98500
C594        C  0.46014539  0.97137686  0.94219321     1.04400
O595        O  0.47677580  0.89981286  0.88650731    -0.78200
C596        C  0.38257866  0.93397781  0.81490868     1.02700
Fe597      Fe  0.13602471  0.09385661  0.63036191     1.65800
Fe598      Fe  0.07881167  0.02545717  0.62618864     1.73200
Fe599      Fe  0.05809376  0.11242904  0.59043362     1.54400
O600        O  0.07506053  0.16164795  0.61636834    -0.81900
O601        O  0.05153976  0.01190914  0.58146988    -0.80200
O602        O  0.12793980  0.15178394  0.62720791    -0.84400
O603        O  0.13665196  0.09428058  0.58491459    -0.79200
O604        O  0.02443081  0.10324753  0.61440655    -0.81000
O605        O  0.11845246  0.99700623  0.61829103    -0.83800
C606        C  0.11538448  0.10914994  0.56174480     0.97000
C607        C  0.10422076  0.17428328  0.62347859     1.04400
O608        O  0.09051555  0.07717138  0.61571858    -1.12700
O609        O  0.10458607  0.03643369  0.67192341    -0.75200
O610        O  0.13283041  0.09227540  0.67494147    -0.78700
O611        O  0.08848532  0.12298661  0.56348316    -0.79400
C612        C  0.12109152  0.06465741  0.68722018     0.95900
O613        O  0.15673413  0.04047986  0.63719141    -0.77300
O614        O  0.03721365  0.04497485  0.63500976    -0.82500
C615        C  0.03616515  0.03292298  0.55902603     0.98500
C616        C  0.01848650  0.07394475  0.62868850     1.04400
O617        O  0.03668135  0.06940198  0.56013872    -0.78200
C618        C  0.14832377  0.00633984  0.62909361     1.02700
Fe619      Fe  0.11734431  0.08812105  0.87522761     1.65800
Fe620      Fe  0.17401069  0.02112839  0.87647788     1.73200
Fe621      Fe  0.19675932  0.10901245  0.91063531     1.54400
O622        O  0.17775475  0.15759192  0.88500935    -0.81900
O623        O  0.20150064  0.00894999  0.92062129    -0.80200
O624        O  0.12519378  0.14579126  0.87565341    -0.84400
O625        O  0.11979158  0.09121071  0.92130549    -0.79200
O626        O  0.22814017  0.10065202  0.88413553    -0.81000
O627        O  0.13501667  0.99085371  0.88485687    -0.83800
C628        C  0.14232557  0.10618973  0.94362148     0.97000
C629        C  0.14842949  0.16903421  0.87790921     1.04400
O630        O  0.16302940  0.07267233  0.88745760    -1.12700
O631        O  0.14788196  0.03210532  0.83116998    -0.75200
O632        O  0.11718885  0.08480955  0.82969909    -0.78700
O633        O  0.16946755  0.11866751  0.94079303    -0.79400
C634        C  0.13026595  0.05965516  0.81657120     0.95900
O635        O  0.09669679  0.03463133  0.87170763    -0.77300
O636        O  0.21576285  0.04045537  0.86737056    -0.82500
C637        C  0.22016208  0.03011454  0.94137029     0.98500
C638        C  0.23440238  0.06987611  0.87189915     1.04400
O639        O  0.22069211  0.06652951  0.93946660    -0.78200
C640        C  0.10524593  0.00022615  0.87747392     1.02700
C641        C  0.12587012  0.06465724  0.72069130    -0.00400
C642        C  0.11824712  0.09759291  0.73497524    -0.12200
C643        C  0.11834232  0.09670987  0.76583424     0.01900
C644        C  0.12640243  0.06221915  0.78302349    -0.00500
C645        C  0.13439220  0.02958473  0.76847912    -0.12200
C646        C  0.13438306  0.03058593  0.73790212     0.01800
H647        H  0.11138289  0.12380426  0.72176328     0.14700
H648        H  0.14107762  0.00293495  0.78110989     0.14700
C649        C  0.14424629  0.99642460  0.72498044     0.36400
C650        C  0.11060641  0.13177207  0.77913056     0.36300
N651        N  0.15229944  0.96912408  0.71469582    -0.44000
N652        N  0.10435064  0.15991214  0.78969634    -0.44000
C653        C  0.12123716  0.10965425  0.53108314    -0.00400
C654        C  0.15269036  0.10191634  0.52922719    -0.12200
C655        C  0.16322312  0.10843563  0.00218371     0.01900
C656        C  0.13707667  0.10899451  0.97439622    -0.00500
C657        C  0.10501118  0.11133043  0.97609829    -0.12200
C658        C  0.09571869  0.11604783  0.50329506     0.01800
H659        H  0.17268113  0.09784181  0.55006515     0.14700
H660        H  0.08475578  0.11230187  0.95514359     0.14700
C661        C  0.06320987  0.12778810  0.50265023     0.36400
C662        C  0.19707735  0.10745303  0.00272802     0.36300
N663        N  0.03723738  0.13764990  0.50198970    -0.44000
N664        N  0.22438054  0.10745920  0.00366076    -0.44000
C665        C  0.47900735  0.98813572  0.97219041    -0.00400
C666        C  0.50306497  0.96490011  0.99210023    -0.12200
C667        C  0.49342630  0.98791153  0.52808433     0.01900
C668        C  0.01671477  0.01523578  0.52976960    -0.00500
C669        C  0.01893544  0.03169885  0.50231892    -0.12200
C670        C  0.97613728  0.02737615  0.97915005     0.01800
H671        H  0.50750851  0.93597920  0.98531926     0.14700
H672        H  0.03637665  0.05477860  0.50323734     0.14700
C673        C  0.95387705  0.05374743  0.95897989     0.36400
C674        C  0.48841709  0.97220153  0.55567389     0.36300
N675        N  0.93613772  0.07516477  0.94303509    -0.44000
N676        N  0.48417249  0.95963940  0.57769701    -0.44000
C677        C  0.32386134  0.02586835  0.86500881    -0.00400
C678        C  0.32471138  0.05249980  0.88835883    -0.12200
C679        C  0.29620139  0.07207810  0.88887059     0.01900
C680        C  0.26629920  0.06491531  0.86566866    -0.00500
C681        C  0.26681653  0.04220962  0.84035368    -0.12200
C682        C  0.29524081  0.02294547  0.83977887     0.01800
H683        H  0.34676107  0.05540859  0.90758726     0.14700
H684        H  0.24423041  0.03693846  0.82214753     0.14700
C685        C  0.29404697  0.99888626  0.81362674     0.36400
C686        C  0.29748851  0.09557076  0.91531808     0.36300
N687        N  0.29311600  0.97985419  0.79255893    -0.44000
N688        N  0.29855312  0.11439440  0.93653065    -0.44000
C689        C  0.07821734  0.97158284  0.87352196    -0.00400
C690        C  0.05052719  0.97752549  0.84833817    -0.12200
C691        C  0.02021752  0.96143800  0.84707716     0.01900
C692        C  0.01721408  0.93616007  0.87053648    -0.00500
C693        C  0.04591604  0.92616349  0.89384589    -0.12200
C694        C  0.07624756  0.94422896  0.89585089     0.01800
H695        H  0.05187380  0.99814947  0.83077859     0.14700
H696        H  0.04401724  0.90755349  0.91240261     0.14700
C697        C  0.10377354  0.93742433  0.92255633     0.36400
C698        C  0.49167214  0.97677360  0.82370760     0.36300
N699        N  0.12572074  0.93195924  0.94411127    -0.44000
N700        N  0.46972498  0.98929923  0.80482318    -0.44000
C701        C  0.24227508  0.01258128  0.96939435    -0.00400
C702        C  0.26447792  0.03678687  0.99064856    -0.12200
C703        C  0.28543650  0.01344935  0.51438645     0.01900
C704        C  0.27023499  0.99513512  0.53408795    -0.00500
C705        C  0.23662109  0.98633110  0.52365798    -0.12200
C706        C  0.24170372  0.97293560  0.97594144     0.01800
H707        H  0.26716525  0.06673845  0.98517109     0.14700
H708        H  0.22492411  0.97217542  0.53892991     0.14700
C709        C  0.22285855  0.94506179  0.95409012     0.36400
C710        C  0.32003020  0.02234157  0.52404741     0.36300
N711        N  0.20811530  0.92256008  0.93656063    -0.44000
N712        N  0.34774988  0.02950278  0.53187171    -0.44000
C713        C  0.37993154  0.89050876  0.97089507    -0.00400
C714        C  0.40679107  0.89869026  0.99670574    -0.12200
C715        C  0.39768400  0.88656986  0.52591747     0.01900
C716        C  0.36716059  0.89585514  0.52969244    -0.00500
C717        C  0.34026232  0.90147001  0.50346956    -0.12200
C718        C  0.34964535  0.88079038  0.97532964     0.01800
H719        H  0.43026870  0.90640088  0.99357649     0.14700
H720        H  0.31650190  0.90822117  0.50611259     0.14700
C721        C  0.32149487  0.87059428  0.94989923     0.36400
C722        C  0.42565537  0.87764274  0.55174817     0.36300
N723        N  0.29891645  0.86226258  0.92958131    -0.44000
N724        N  0.44804723  0.87023070  0.57238883    -0.44000
C725        C  0.37490367  0.93079631  0.71980278    -0.00400
C726        C  0.40573882  0.92779756  0.74148121    -0.12200
C727        C  0.40823631  0.92404264  0.77263396     0.01900
C728        C  0.38005512  0.92796539  0.78238579    -0.00500
C729        C  0.34927270  0.92574676  0.76055851    -0.12200
C730        C  0.34675741  0.92485806  0.72934088     0.01800
H731        H  0.42759136  0.92733766  0.73407476     0.14700
H732        H  0.32737328  0.92386501  0.76785890     0.14700
C733        C  0.31645668  0.91168310  0.70807797     0.36400
C734        C  0.43832026  0.90977863  0.79321445     0.36300
N735        N  0.29256461  0.89896130  0.69169469    -0.44000
N736        N  0.46198372  0.89635299  0.80906461    -0.44000
C737        C  0.42931630  0.03169731  0.63655484    -0.00400
C738        C  0.42854462  0.05862359  0.61344517    -0.12200
C739        C  0.45739349  0.07747262  0.61223999     0.01900
C740        C  0.48755251  0.06947033  0.63465310    -0.00500
C741        C  0.48712720  0.04661437  0.65993432    -0.12200
C742        C  0.45851903  0.02761069  0.66097294     0.01800
H743        H  0.40610922  0.06219533  0.59472645     0.14700
H744        H  0.50994990  0.04072900  0.67763834     0.14700
C745        C  0.46030976  0.00203750  0.68641304     0.36400
C746        C  0.45594328  0.10106274  0.58582859     0.36300
N747        N  0.46193240  0.98157920  0.70683355    -0.44000
N748        N  0.45482159  0.11993278  0.56463359    -0.44000
C749        C  0.23584626  0.94335498  0.63515351    -0.00400
C750        C  0.20677781  0.93287544  0.61227912    -0.12200
C751        C  0.17667965  0.95035538  0.61094483     0.01900
C752        C  0.17542033  0.97822024  0.63310442    -0.00500
C753        C  0.20354893  0.98457977  0.65801457    -0.12200
C754        C  0.23352969  0.96825762  0.65897348     0.01800
H755        H  0.20811204  0.91418145  0.59371041     0.20300
H756        H  0.20275212  0.00508551  0.67568421     0.14700
C757        C  0.26192510  0.98089273  0.68328356     0.36400
C758        C  0.14842778  0.94212889  0.58510664     0.36300
N759        N  0.28429354  0.99182216  0.70278812    -0.44000
N760        N  0.12571044  0.93557748  0.56440974    -0.44000
C761        C  0.11674250  0.28730078  0.87373432    -0.00400
C762        C  0.15004149  0.27809696  0.88743501    -0.12200
C763        C  0.16164515  0.24051658  0.88713947     0.01900
C764        C  0.13965403  0.21053028  0.87369525    -0.00500
C765        C  0.10656077  0.21981670  0.85937610    -0.12200
C766        C  0.09506493  0.25749864  0.85911440     0.01800
H767        H  0.16741832  0.30045324  0.89815124     0.14700
H768        H  0.08931538  0.19740661  0.84847107     0.14700
C769        C  0.06114514  0.26450407  0.84275597     0.36400
C770        C  0.19615677  0.23385888  0.90106693     0.36300
N771        N  0.03397497  0.26991492  0.82946896    -0.44000
N772        N  0.22388196  0.22873476  0.91198175    -0.44000
C773        C  0.11166446  0.21629381  0.62496439    -0.00400
C774        C  0.09013449  0.24109532  0.60445917    -0.12200
C775        C  0.09868897  0.27972671  0.60160882     0.01900
C776        C  0.12983069  0.29419144  0.61902776    -0.00500
C777        C  0.15131220  0.26932772  0.63946664    -0.12200
C778        C  0.14230676  0.23109832  0.64301666     0.01800
H779        H  0.06683651  0.23012453  0.59014701     0.14700
H780        H  0.17447527  0.28034805  0.65402961     0.14700
C781        C  0.16431924  0.20833754  0.66668003     0.36400
C782        C  0.07479154  0.30378045  0.58067734     0.36300
N783        N  0.18179060  0.19025358  0.68587420    -0.44000
N784        N  0.05545895  0.32300943  0.56409678    -0.44000
C785        C  0.12487430  0.44194539  0.52890341    -0.00400
C786        C  0.13017326  0.47550894  0.51370640    -0.12200
C787        C  0.12937858  0.47683271  0.98342801     0.01900
C788        C  0.12680650  0.44192845  0.96694314    -0.00500
C789        C  0.12566384  0.40696853  0.98194056    -0.12200
C790        C  0.12229299  0.40621670  0.51321761     0.01800
H791        H  0.13310293  0.50303831  0.52541454     0.14700
H792        H  0.12359869  0.38013692  0.96936367     0.14700
C793        C  0.11932328  0.37009619  0.52784121     0.36400
C794        C  0.13228888  0.51367920  0.96962259     0.36300
N795        N  0.11719954  0.34094617  0.53942042    -0.44000
N796        N  0.13471176  0.54315130  0.95858997    -0.44000
C797        C  0.12167540  0.39593241  0.71617548    -0.00400
C798        C  0.14443971  0.37470258  0.73934061    -0.12200
C799        C  0.14342100  0.37447235  0.76973533     0.01900
C800        C  0.11930881  0.39561684  0.77754398    -0.00500
C801        C  0.09650710  0.41660221  0.75481350    -0.12200
C802        C  0.09744932  0.41714240  0.72442694     0.01800
H803        H  0.16333121  0.35811869  0.73388122     0.14700
H804        H  0.07780811  0.43284649  0.76095311     0.14700
C805        C  0.07343149  0.44016242  0.70271201     0.36400
C806        C  0.16633985  0.35111019  0.79219874     0.36300
N807        N  0.05405419  0.45872593  0.68554266    -0.44000
N808        N  0.18449484  0.33225869  0.81026552    -0.44000
C809        C  0.38097501  0.71576373  0.62453198    -0.00400
C810        C  0.34801920  0.72605518  0.62049434    -0.12200
C811        C  0.33864212  0.76446328  0.62144701     0.01900
C812        C  0.36234513  0.79404499  0.62611204    -0.00500
C813        C  0.39539911  0.78367342  0.63085359    -0.12200
C814        C  0.40483649  0.74529759  0.63025859     0.01800
H815        H  0.32925895  0.70402547  0.61692045     0.14700
H816        H  0.41426005  0.80562323  0.63473855     0.14700
C817        C  0.43924525  0.73755817  0.63592785     0.36400
C818        C  0.30458503  0.77225034  0.61774624     0.36300
N819        N  0.46686942  0.73156669  0.64065454    -0.44000
N820        N  0.27729855  0.77836938  0.61491033    -0.44000
C821        C  0.01710451  0.48520324  0.77744555    -0.00400
C822        C  0.01236463  0.52514354  0.77697463    -0.12200
C823        C  0.99260404  0.54343420  0.75090137     0.01900
C824        C  0.47622358  0.52196724  0.72470108    -0.00500
C825        C  0.48142956  0.48209688  0.72508244    -0.12200
C826        C  0.50147015  0.46394313  0.75098131     0.01800
H827        H  0.02380761  0.54226605  0.79720047     0.14700
H828        H  0.47016587  0.46482497  0.70489738     0.14700
C829        C  0.50565318  0.42283921  0.74905127     0.36400
C830        C  0.98911097  0.58465638  0.75270349     0.36300
N831        N  0.50879011  0.38991718  0.74734000    -0.44000
N832        N  0.98649154  0.61765986  0.75446752    -0.44000
C833        C  0.31949019  0.47846479  0.62036715    -0.00400
C834        C  0.29286577  0.47789509  0.59338282    -0.12200
C835        C  0.26309732  0.46023807  0.59258021     0.01900
C836        C  0.25955233  0.44193573  0.61902851    -0.00500
C837        C  0.28718729  0.43886754  0.64499426    -0.12200
C838        C  0.31693360  0.45731671  0.64602090     0.01800
H839        H  0.29461327  0.49359003  0.57332396     0.14700
H840        H  0.28457401  0.42558191  0.66569713     0.14700
C841        C  0.34286818  0.45796475  0.67473602     0.36400
C842        C  0.23585703  0.46356290  0.56497407     0.36300
N843        N  0.36353369  0.45866437  0.69784168    -0.44000
N844        N  0.21407937  0.46638215  0.54285087    -0.44000
C845        C  0.01250586  0.56932868  0.62384375    -0.00400
C846        C  0.01405558  0.55354732  0.59607623    -0.12200
C847        C  0.04233021  0.53515530  0.59411938     0.01900
C848        C  0.06998575  0.53234515  0.62032120    -0.00500
C849        C  0.06967773  0.55156399  0.64732363    -0.12200
C850        C  0.04110190  0.56974705  0.64936338     0.01800
H851        H  0.99218625  0.55286540  0.57647400     0.14700
H852        H  0.09062395  0.54928366  0.66764801     0.14700
C853        C  0.04051568  0.58428301  0.67887585     0.36400
C854        C  0.04156545  0.51711568  0.56538703     0.36300
N855        N  0.54098220  0.60483181  0.69922989    -0.44000
N856        N  0.04085565  0.50252975  0.54239147    -0.44000
C857        C  0.36611534  0.71027273  0.87589738    -0.00400
C858        C  0.34870609  0.73528704  0.85273456    -0.12200
C859        C  0.35959754  0.77327257  0.85109528     0.01900
C860        C  0.38806016  0.78725986  0.87336236    -0.00500
C861        C  0.40563598  0.76214020  0.89630701    -0.12200
C862        C  0.39509448  0.72398065  0.89761804     0.01800
H863        H  0.32742306  0.72464688  0.83508740     0.14700
H864        H  0.42701987  0.77268145  0.91388731     0.14700
C865        C  0.41428172  0.69958038  0.92184334     0.36400
C866        C  0.34194371  0.79691559  0.82556443     0.36300
N867        N  0.42973593  0.68000570  0.94119077    -0.44000
N868        N  0.32808119  0.81585485  0.80501005    -0.44000
C869        C  0.22422393  0.48918269  0.72098553    -0.00400
C870        C  0.22333999  0.47119917  0.74835830    -0.12200
C871        C  0.24403185  0.48345056  0.77675009     0.01900
C872        C  0.26599932  0.51431587  0.77789241    -0.00500
C873        C  0.26654078  0.53254953  0.75057680    -0.12200
C874        C  0.24619122  0.52005592  0.72223049     0.01800
H875        H  0.20654563  0.44734707  0.74751251     0.14700
H876        H  0.28344633  0.55626239  0.75136266     0.14700
C877        C  0.25011034  0.53764583  0.69482577     0.36400
C878        C  0.24142393  0.46470267  0.80421390     0.36300
N879        N  0.25358930  0.55157479  0.67294601    -0.44000
N880        N  0.23915619  0.44949595  0.82608120    -0.44000
C881        C  0.36857530  0.60393389  0.77749478    -0.00400
C882        C  0.34193011  0.61761597  0.75323971    -0.12200
C883        C  0.34273604  0.61798018  0.72277906     0.01900
C884        C  0.37073293  0.60496037  0.71600917    -0.00500
C885        C  0.39686772  0.59026482  0.73973358    -0.12200
C886        C  0.39605897  0.58926787  0.77014808     0.01800
H887        H  0.32008018  0.62819378  0.75789287     0.14700
H888        H  0.41824315  0.57936354  0.73433933     0.14700
C889        C  0.42375880  0.57289008  0.79289638     0.36400
C890        C  0.31515461  0.63312477  0.69919657     0.36300
N891        N  0.44600539  0.55950100  0.81089911    -0.44000
N892        N  0.29296080  0.64529038  0.68039024    -0.44000
C893        C  0.37647638  0.56001256  0.96765890    -0.00400
C894        C  0.38169499  0.52517011  0.98382790    -0.12200
C895        C  0.38228693  0.52463953  0.51669752     0.01900
C896        C  0.37705204  0.55947273  0.53089738    -0.00500
C897        C  0.37163221  0.59335828  0.51321515    -0.12200
C898        C  0.37172322  0.59385725  0.98290158     0.01800
H899        H  0.38470943  0.49890064  0.97213010     0.14700
H900        H  0.36741197  0.62024374  0.52343172     0.14700
C901        C  0.36376622  0.62999755  0.96686476     0.36400
C902        C  0.38672120  0.48803857  0.53245090     0.36300
N903        N  0.35709427  0.65895896  0.95406718    -0.44000
N904        N  0.39030743  0.45870025  0.54501762    -0.44000
C905        C  0.48411533  0.43301700  0.87795165    -0.00400
C906        C  0.45594380  0.42931797  0.85249432    -0.12200
C907        C  0.42666428  0.44821733  0.85179953     0.01900
C908        C  0.42539441  0.47130794  0.87691119    -0.00500
C909        C  0.45254782  0.47149409  0.90348492    -0.12200
C910        C  0.48154507  0.45244088  0.90423599     0.01800
H911        H  0.45772348  0.41489266  0.83198041     0.14700
H912        H  0.45173843  0.48842499  0.92321634     0.14700
C913        C  0.50915485  0.45493449  0.93165332     0.36400
C914        C  0.39962019  0.44683106  0.82393754     0.36300
N915        N  0.53131300  0.45656325  0.95359803    -0.44000
N916        N  0.37792514  0.44574158  0.80159635    -0.44000
C917        C  0.23592417  0.56305722  0.87920358    -0.00400
C918        C  0.23312633  0.54444765  0.90559301    -0.12200
C919        C  0.20370771  0.52666146  0.90584924     0.01900
C920        C  0.17630853  0.52709618  0.87924838    -0.00500
C921        C  0.17798125  0.54901107  0.85396437    -0.12200
C922        C  0.20755234  0.56675279  0.85363882     0.01800
H923        H  0.25467636  0.54126425  0.92524557     0.14700
H924        H  0.15721595  0.54911037  0.83335585     0.14700
C925        C  0.20915159  0.58396553  0.82528922     0.36400
C926        C  0.20289217  0.50579172  0.93303990     0.36300
N927        N  0.21044448  0.59750224  0.80248952    -0.44000
N928        N  0.20230027  0.48900508  0.95479185    -0.44000
Fe929      Fe  0.89315960  0.58209992  0.37825804     1.65800
Fe930      Fe  0.83413968  0.51582651  0.37362540     1.73200
Fe931      Fe  0.81572850  0.60386195  0.33922302     1.54400
O932        O  0.83360563  0.65112339  0.36733349    -0.81900
O933        O  0.80991685  0.50393369  0.32810051    -0.80200
O934        O  0.88617704  0.64047826  0.37611986    -0.84400
O935        O  0.89295696  0.58237552  0.33249470    -0.79200
O936        O  0.78009926  0.59434039  0.36104190    -0.81000
O937        O  0.87402045  0.48576293  0.36811796    -0.83800
C938        C  0.87201483  0.59861634  0.30988140     0.97000
C939        C  0.86294090  0.66327939  0.37417248     1.04400
O940        O  0.84721524  0.56715386  0.36399767    -1.12700
O941        O  0.85762278  0.52718728  0.41995435    -0.75200
O942        O  0.88994613  0.57995596  0.42284001    -0.78700
O943        O  0.84673179  0.61536392  0.31293308    -0.79400
C944        C  0.87549804  0.55475570  0.43502777     0.95900
O945        O  0.91354436  0.52844045  0.38435270    -0.77300
O946        O  0.79080612  0.53476374  0.37936174    -0.82500
C947        C  0.79463398  0.52565281  0.30608794     0.98500
C948        C  0.77228391  0.56381430  0.37268860     1.04400
O949        O  0.79458199  0.56207000  0.30803824    -0.78200
C950        C  0.90409111  0.49436481  0.37737276     1.02700
Fe951      Fe  0.86374092  0.58623595  0.11749504     1.65800
Fe952      Fe  0.92176410  0.52005159  0.12544791     1.73200
Fe953      Fe  0.94145497  0.60864751  0.15814753     1.54400
O954        O  0.92341087  0.65672604  0.13162209    -0.81900
O955        O  0.94535297  0.50961589  0.17108020    -0.80200
O956        O  0.87084302  0.64448552  0.12053466    -0.84400
O957        O  0.86239419  0.58667456  0.16274462    -0.79200
O958        O  0.97575529  0.60040510  0.13461745    -0.81000
O959        O  0.88094566  0.49140616  0.13192387    -0.83800
C960        C  0.88381802  0.60115802  0.18622640     0.97000
C961        C  0.89413244  0.66822084  0.12486795     1.04400
O962        O  0.90948669  0.57180702  0.13336715    -1.12700
O963        O  0.89884825  0.52943299  0.07900069    -0.75200
O964        O  0.86867478  0.58351281  0.07355802    -0.78700
O965        O  0.91062101  0.61681447  0.18509928    -0.79400
C966        C  0.88208747  0.55635452  0.06251102     0.95900
O967        O  0.84255501  0.53254796  0.11014826    -0.77300
O968        O  0.96535763  0.53922505  0.11929140    -0.82500
C969        C  0.96234581  0.53160883  0.19223691     0.98500
C970        C  0.98343283  0.56926036  0.12379259     1.04400
O971        O  0.96413527  0.56757646  0.18884475    -0.78200
C972        C  0.85103427  0.49938303  0.12024089     1.02700
Fe973      Fe  0.61048760  0.41282135  0.11888870     1.65800
Fe974      Fe  0.66957343  0.47912070  0.12395715     1.73200
Fe975      Fe  0.68800767  0.39075537  0.15745813     1.54400
O976        O  0.65645574  0.37806550  0.18328428    -0.81900
O977        O  0.71172875  0.45979350  0.11563547    -0.80200
O978        O  0.61027044  0.41150909  0.16427983    -0.84400
O979        O  0.61765624  0.35473620  0.12066669    -0.79200
O980        O  0.70908637  0.43142999  0.18941412    -0.81000
O981        O  0.64422713  0.46915780  0.07789687    -0.83800
C982        C  0.64100969  0.33241198  0.12196785     0.97000
C983        C  0.63075560  0.39394576  0.18635862     1.04400
O984        O  0.65653597  0.42776776  0.13331753    -1.12700
O985        O  0.63026283  0.50865837  0.13176030    -0.75200
O986        O  0.59062740  0.46666759  0.11323468    -0.78700
O987        O  0.67018379  0.34482071  0.12812279    -0.79400
C988        C  0.60010592  0.50045960  0.12135267     0.95900
O989        O  0.61340881  0.41520444  0.07456318    -0.77300
O990        O  0.69621024  0.48998918  0.16918422    -0.82500
C991        C  0.73086049  0.43124700  0.12272530     0.98500
C992        C  0.71078151  0.46782710  0.19119758     1.04400
O993        O  0.72417776  0.40152804  0.13617062    -0.78200
C994        C  0.62689385  0.44141376  0.06255237     1.02700
Fe995      Fe  0.63989027  0.40765545  0.37855024     1.65800
Fe996      Fe  0.58253904  0.47482235  0.37186285     1.73200
Fe997      Fe  0.56082476  0.38606793  0.34023354     1.54400
O998        O  0.58920816  0.37790934  0.31106242    -0.81900
O999        O  0.53909003  0.45622136  0.37846655    -0.80200
O1000       O  0.63932540  0.40394621  0.33267651    -0.84400
O1001       O  0.63222691  0.34994905  0.37798558    -0.79200
O1002       O  0.53652889  0.42755449  0.31074375    -0.81000
O1003       O  0.60584572  0.46620496  0.41810871    -0.83800
C1004       C  0.60897503  0.32618301  0.37304167     0.97000
C1005       C  0.61684476  0.39048054  0.30945740     1.04400
O1006       O  0.59415547  0.42263979  0.36391411    -1.12700
O1007       O  0.62309290  0.50349931  0.36537506    -0.75200
O1008       O  0.66157946  0.46072515  0.38277109    -0.78700
O1009       O  0.57959447  0.33731958  0.36528752    -0.79400
C1010       C  0.65295294  0.49456273  0.37492766     0.95900
O1011       O  0.63738521  0.41320126  0.42345299    -0.77300
O1012       O  0.55887574  0.48478389  0.32638201    -0.82500
C1013       C  0.52142237  0.42606063  0.37608077     0.98500
C1014       C  0.53955415  0.46316561  0.30651893     1.04400
O1015       O  0.52890101  0.39414351  0.36627171    -0.78200
C1016       C  0.62384072  0.44021645  0.43455958     1.02700
Fe1017     Fe  0.89115202  0.90925300  0.13020528     1.65800
Fe1018     Fe  0.83453177  0.97719073  0.12583686     1.73200
Fe1019     Fe  0.81270201  0.88989436  0.09130798     1.54400
O1020       O  0.84378718  0.87644253  0.06536551    -0.81900
O1021       O  0.78998256  0.96143487  0.12960836    -0.80200
O1022       O  0.89131563  0.90842437  0.08492673    -0.84400
O1023       O  0.88118625  0.85175154  0.12701870    -0.79200
O1024       O  0.79456662  0.93222323  0.06030018    -0.81000
O1025       O  0.85526431  0.96279007  0.17218193    -0.83800
C1026       C  0.85738139  0.82930935  0.12496048     0.97000
C1027       C  0.87020047  0.89144761  0.06270007     1.04400
O1028       O  0.84574903  0.92558974  0.11604851    -1.12700
O1029       O  0.87592184  0.00588094  0.12252036    -0.75200
O1030       O  0.91388457  0.96197233  0.13705178    -0.78700
O1031       O  0.82851325  0.84219679  0.11936123    -0.79400
C1032       C  0.90555257  0.99642437  0.13141338     0.95900
O1033       O  0.88802868  0.91109575  0.17442984    -0.77300
O1034       O  0.81286059  0.98998427  0.07990310    -0.82500
C1035       C  0.77013004  0.93341718  0.12384399     0.98500
C1036       C  0.79717122  0.96837565  0.05767543     1.04400
O1037       O  0.77650781  0.90186700  0.11259289    -0.78200
C1038       C  0.87270440  0.93476672  0.18661684     1.02700
Fe1039     Fe  0.86203296  0.90654398  0.37095194     1.65800
Fe1040     Fe  0.91951678  0.97488913  0.37467364     1.73200
Fe1041     Fe  0.94020250  0.88914834  0.41188359     1.54400
O1042       O  0.90889505  0.87847127  0.43820264    -0.81900
O1043       O  0.96310116  0.95703892  0.37028105    -0.80200
O1044       O  0.86091427  0.90708251  0.41590790    -0.84400
O1045       O  0.87090737  0.84890658  0.37458119    -0.79200
O1046       O  0.96002517  0.93320102  0.44188625    -0.81000
O1047       O  0.89780992  0.95966783  0.32862125    -0.83800
C1048       C  0.89475394  0.82669748  0.37797427     0.97000
C1049       C  0.88176466  0.89255445  0.43934699     1.04400
O1050       O  0.90760359  0.92365863  0.38570599    -1.12700
O1051       O  0.87837202  0.00398270  0.37792730    -0.75200
O1052       O  0.84043672  0.95911566  0.36365431    -0.78700
O1053       O  0.92392434  0.83960887  0.38574636    -0.79400
C1054       C  0.84865800  0.99383807  0.36880473     0.95900
O1055       O  0.86526948  0.90729835  0.32659975    -0.77300
O1056       O  0.94298757  0.99013398  0.42010412    -0.82500
C1057       C  0.98210304  0.92857251  0.37617465     0.98500
C1058       C  0.95872905  0.96967253  0.44288185     1.04400
O1059       O  0.97565370  0.89837255  0.38925096    -0.78200
C1060       C  0.88025623  0.93143519  0.31419536     1.02700
Fe1061     Fe  0.63999986  0.09164442  0.12978943     1.65800
Fe1062     Fe  0.58302864  0.02379770  0.12526318     1.73200
Fe1063     Fe  0.56195933  0.11106331  0.09057956     1.54400
O1064       O  0.57903652  0.15863354  0.11828611    -0.81900
O1065       O  0.55396880  0.01195636  0.08108179    -0.80200
O1066       O  0.63183839  0.14944957  0.12694700    -0.84400
O1067       O  0.64029292  0.09232464  0.08436491    -0.79200
O1068       O  0.52716038  0.09947515  0.11325794    -0.81000
O1069       O  0.62126396  0.99643843  0.11410811    -0.83800
C1070       C  0.61920408  0.10812707  0.06162664     0.97000
C1071       C  0.60806651  0.17150477  0.12455130     1.04400
O1072       O  0.59436661  0.07552866  0.11530903    -1.12700
O1073       O  0.61053705  0.03300928  0.17109261    -0.75200
O1074       O  0.63719060  0.08985489  0.17445284    -0.78700
O1075       O  0.59283004  0.12314104  0.06389521    -0.79400
C1076       C  0.62630778  0.06153390  0.18669279     0.95900
O1077       O  0.66018668  0.03791817  0.13592896    -0.77300
O1078       O  0.54250629  0.04275550  0.13602043    -0.82500
C1079       C  0.53886812  0.03311456  0.05868437     0.98500
C1080       C  0.52214512  0.07001480  0.12801981     1.04400
O1081       O  0.54073812  0.06946592  0.05959655    -0.78200
C1082       C  0.65124118  0.00483910  0.12520716     1.02700
Fe1083     Fe  0.61572017  0.08540026  0.37264283     1.65800
Fe1084     Fe  0.67254932  0.01783401  0.37797450     1.73200
Fe1085     Fe  0.69424345  0.10705575  0.40937825     1.54400
O1086       O  0.67585825  0.15401987  0.38186139    -0.81900
O1087       O  0.69636560  0.00761221  0.42389492    -0.80200
O1088       O  0.62353305  0.14296286  0.37382312    -0.84400
O1089       O  0.61638074  0.08866272  0.41839443    -0.79200
O1090       O  0.72663639  0.09770487  0.38425490    -0.81000
O1091       O  0.63192867  0.98822556  0.38370404    -0.83800
C1092       C  0.63843327  0.10462001  0.44066772     0.97000
C1093       C  0.64680078  0.16591274  0.37560886     1.04400
O1094       O  0.66113166  0.06990214  0.38670139    -1.12700
O1095       O  0.64964022  0.02853946  0.33141752    -0.75200
O1096       O  0.61862619  0.08163964  0.32796877    -0.78700
O1097       O  0.66541279  0.11792943  0.43797608    -0.79400
C1098       C  0.63293104  0.05638876  0.31598081     0.95900
O1099       O  0.59445227  0.03233767  0.36790453    -0.77300
O1100       O  0.71581681  0.03605608  0.37156252    -0.82500
C1101       C  0.71464095  0.03018340  0.44390544     0.98500
C1102       C  0.73368377  0.06593495  0.37409759     1.04400
O1103       O  0.71737962  0.06596573  0.43985491    -0.78200
C1104       C  0.60226311  0.99794099  0.37454504     1.02700
C1105       C  0.63109706  0.06131120  0.22034386    -0.00400
C1106       C  0.62526190  0.09485967  0.23506601    -0.12200
C1107       C  0.62524998  0.09417996  0.26593474     0.01900
C1108       C  0.63112948  0.05919541  0.28275706    -0.00500
C1109       C  0.63812589  0.02613221  0.26807293    -0.12200
C1110       C  0.63830029  0.02694470  0.23745122     0.01800
H1111       H  0.61986894  0.12150968  0.22219031     0.14700
H1112       H  0.64355349  0.99921372  0.28055878     0.14700
C1113       C  0.64693934  0.99221952  0.22434913     0.36400
C1114       C  0.61997887  0.13003966  0.27974158     0.36300
N1115       N  0.65400666  0.96451371  0.21381902    -0.44000
N1116       N  0.61583576  0.15886139  0.29072967    -0.44000
C1117       C  0.62497381  0.10893979  0.03102284    -0.00400
C1118       C  0.65713731  0.10994047  0.02931627    -0.12200
C1119       C  0.65912328  0.10493573  0.49904508     0.01900
C1120       C  0.63309580  0.10789737  0.47132385    -0.00500
C1121       C  0.60147435  0.11448801  0.47306997    -0.12200
C1122       C  0.59883328  0.10778218  0.00325745     0.01800
H1123       H  0.67739795  0.11107113  0.05027410     0.14700
H1124       H  0.58150780  0.11787513  0.45210016     0.14700
C1125       C  0.56491435  0.10703810  0.00253941     0.36400
C1126       C  0.69283232  0.10078675  0.49958464     0.36300
N1127       N  0.53747599  0.10709166  0.00110879    -0.44000
N1128       N  0.72013743  0.09839164  0.50077986    -0.44000
C1129       C  0.97701505  0.98800341  0.47225976    -0.00400
C1130       C  0.97476186  0.97143384  0.49973505    -0.12200
C1131       C  0.01949715  0.97838759  0.02123497     0.01900
C1132       C  0.51767821  0.01578738  0.02998694    -0.00500
C1133       C  0.49284271  0.03859265  0.01071458    -0.12200
C1134       C  0.49942244  0.01990203  0.47320109     0.01800
H1135       H  0.95764502  0.94787016  0.49878971     0.14700
H1136       H  0.48837427  0.06725736  0.01801094     0.14700
C1137       C  0.50447672  0.03575130  0.44566726     0.36400
C1138       C  0.04019695  0.95119467  0.04190112     0.36300
N1139       N  0.50881040  0.04852361  0.42374911    -0.44000
N1140       N  0.05623869  0.92887604  0.05835674    -0.44000
C1141       C  0.82187261  0.02213336  0.36453614    -0.00400
C1142       C  0.82376637  0.05066980  0.38684204    -0.12200
C1143       C  0.79540640  0.06980371  0.38834353     0.01900
C1144       C  0.76484825  0.06090818  0.36675756    -0.00500
C1145       C  0.76409124  0.03654897  0.34207340    -0.12200
C1146       C  0.79197623  0.01679716  0.34097109     0.01800
H1147       H  0.84660275  0.05523414  0.40486909     0.14700
H1148       H  0.74080397  0.02985205  0.32522185     0.14700
C1149       C  0.78833858  0.98876443  0.31672637     0.36400
C1150       C  0.79770878  0.09456542  0.41433155     0.36300
N1151       N  0.78509233  0.96599887  0.29750056    -0.44000
N1152       N  0.79965386  0.11430135  0.43525084    -0.44000
C1153       C  0.57454533  0.97013904  0.37056590    -0.00400
C1154       C  0.54592312  0.97850484  0.34696362    -0.12200
C1155       C  0.51560967  0.96361431  0.34696370     0.01900
C1156       C  0.51335535  0.93745607  0.37016436    -0.00500
C1157       C  0.54262813  0.92461774  0.39124821    -0.12200
C1158       C  0.57315907  0.94102906  0.39182146     0.01800
H1159       H  0.54675090  0.99994428  0.32980620     0.14700
H1160       H  0.54141458  0.90464517  0.40922092     0.14700
C1161       C  0.60194730  0.92981558  0.41583752     0.36400
C1162       C  0.98885357  0.97672236  0.32413979     0.36300
N1163       N  0.62491726  0.92032152  0.43508429    -0.44000
N1164       N  0.96700950  0.99144958  0.30658266    -0.44000
C1165       C  0.73374192  0.01554292  0.47383589    -0.00400
C1166       C  0.76715915  0.02536755  0.48453424    -0.12200
C1167       C  0.78250210  0.02369135  0.01950695     0.01900
C1168       C  0.78009275  0.98466714  0.02714812    -0.00500
C1169       C  0.76004936  0.95968275  0.00485497    -0.12200
C1170       C  0.71854082  0.99747308  0.49365144     0.01800
H1171       H  0.77862324  0.04047701  0.46952798     0.14700
H1172       H  0.75860840  0.92921187  0.00961526     0.14700
C1173       C  0.68353874  0.99146182  0.48497449     0.36400
C1174       C  0.80447219  0.05062723  0.03985362     0.36300
N1175       N  0.65542650  0.98737187  0.47822726    -0.44000
N1176       N  0.82211203  0.07234879  0.05597031    -0.44000
C1177       C  0.87575599  0.89310972  0.46989050    -0.00400
C1178       C  0.90232185  0.88547646  0.49616228    -0.12200
C1179       C  0.90629434  0.88880162  0.02745679     0.01900
C1180       C  0.87510098  0.88980111  0.03186866    -0.00500
C1181       C  0.84722728  0.89024161  0.00593336    -0.12200
C1182       C  0.84533083  0.90309002  0.47401166     0.01800
H1183       H  0.92594294  0.87761400  0.49377676     0.14700
H1184       H  0.82299550  0.89117505  0.00895125     0.14700
C1185       C  0.81647377  0.91002918  0.44853257     0.36400
C1186       C  0.93581927  0.88647702  0.05298095     0.36300
N1187       N  0.79321821  0.91551268  0.42823484    -0.44000
N1188       N  0.95943895  0.88443635  0.07345881    -0.44000
C1189       C  0.87444666  0.92911609  0.21905876    -0.00400
C1190       C  0.90491134  0.92682453  0.24136167    -0.12200
C1191       C  0.90669606  0.92322017  0.27235636     0.01900
C1192       C  0.87813054  0.92652396  0.28154225    -0.00500
C1193       C  0.84762387  0.92445573  0.25913025    -0.12200
C1194       C  0.84586713  0.92337062  0.22796883     0.01800
H1195       H  0.92705828  0.92636192  0.23451906     0.14700
H1196       H  0.82548133  0.92247180  0.26592226     0.14700
C1197       C  0.81602874  0.90978528  0.20617935     0.36400
C1198       C  0.93665383  0.90937996  0.29335067     0.36300
N1199       N  0.79259045  0.89690479  0.18916610    -0.44000
N1200       N  0.96021743  0.89607432  0.30944207    -0.44000
C1201       C  0.93182596  0.02563642  0.13493099    -0.00400
C1202       C  0.93090811  0.05070074  0.11057150    -0.12200
C1203       C  0.95923353  0.07072871  0.10949816     0.01900
C1204       C  0.98875233  0.06655416  0.13367211    -0.00500
C1205       C  0.98813615  0.04563235  0.15982108    -0.12200
C1206       C  0.96025986  0.02475926  0.16044450     0.01800
H1207       H  0.90910730  0.05159294  0.09094309     0.14700
H1208       H  0.01056956  0.04233356  0.17853404     0.14700
C1209       C  0.96228386  0.00041938  0.18662855     0.36400
C1210       C  0.95842765  0.09062893  0.08147260     0.36300
N1211       N  0.96405026  0.98070243  0.20750391    -0.44000
N1212       N  0.95778567  0.10624305  0.05888609    -0.44000
C1213       C  0.73765925  0.94075118  0.12853242    -0.00400
C1214       C  0.70904923  0.93399175  0.10395465    -0.12200
C1215       C  0.67943049  0.95265793  0.10263467     0.01900
C1216       C  0.67769979  0.97655276  0.12716496    -0.00500
C1217       C  0.70522110  0.97961070  0.15301638    -0.12200
C1218       C  0.73517511  0.96393054  0.15332301     0.01800
H1219       H  0.71074117  0.91784456  0.08419716     0.20300
H1220       H  0.70423357  0.99790615  0.17197084     0.14700
C1221       C  0.76335253  0.97688936  0.17769068     0.36400
C1222       C  0.65293202  0.95088733  0.07439021     0.36300
N1223       N  0.78533114  0.98881086  0.19711703    -0.44000
N1224       N  0.63207509  0.94981376  0.05143622    -0.44000
C1225       C  0.61765399  0.28458406  0.37454724    -0.00400
C1226       C  0.65114446  0.27477480  0.38532645    -0.12200
C1227       C  0.66171723  0.23694463  0.38406052     0.01900
C1228       C  0.63856943  0.20747500  0.37223786    -0.00500
C1229       C  0.60522522  0.21735953  0.36076345    -0.12200
C1230       C  0.59464157  0.25516103  0.36186855     0.01800
H1231       H  0.66942216  0.29677262  0.39460012     0.14700
H1232       H  0.58703926  0.19531186  0.35129280     0.14700
C1233       C  0.56004354  0.26244625  0.34935206     0.36400
C1234       C  0.69638610  0.22946061  0.39555367     0.36300
N1235       N  0.53226588  0.26790621  0.33925430    -0.44000
N1236       N  0.72417918  0.22352935  0.40461908    -0.44000
C1237       C  0.61516844  0.21334135  0.12618791    -0.00400
C1238       C  0.59418441  0.23760281  0.10472310    -0.12200
C1239       C  0.60297767  0.27598255  0.10150245     0.01900
C1240       C  0.63353923  0.29067687  0.11983803    -0.00500
C1241       C  0.65451843  0.26634541  0.14120069    -0.12200
C1242       C  0.64545447  0.22824434  0.14481669     0.01800
H1243       H  0.57135858  0.22626956  0.08976791     0.14700
H1244       H  0.67730380  0.27765963  0.15625241     0.14700
C1245       C  0.66713397  0.20558548  0.16881456     0.36400
C1246       C  0.58025643  0.29942743  0.07891091     0.36300
N1247       N  0.68443716  0.18763150  0.18822270    -0.44000
N1248       N  0.56189619  0.31806261  0.06083613    -0.44000
C1249       C  0.62309600  0.44007271  0.02930057    -0.00400
C1250       C  0.62100192  0.47509433  0.01358638    -0.12200
C1251       C  0.62913435  0.47701229  0.48359004     0.01900
C1252       C  0.62741118  0.44155075  0.46790860    -0.00500
C1253       C  0.62498805  0.40731450  0.48343984    -0.12200
C1254       C  0.62448198  0.40534426  0.01356336     0.01800
H1255       H  0.61997161  0.50188047  0.02544696     0.14700
H1256       H  0.62360261  0.37998727  0.47164928     0.14700
C1257       C  0.62698311  0.36832632  0.02845297     0.36400
C1258       C  0.63350302  0.51320395  0.46956516     0.36300
N1259       N  0.62891812  0.33847221  0.04010449    -0.44000
N1260       N  0.63708081  0.54214159  0.45832132    -0.44000
C1261       C  0.62608218  0.39238789  0.21747794    -0.00400
C1262       C  0.65384425  0.38607496  0.24298773    -0.12200
C1263       C  0.65178350  0.38574268  0.27308280     0.01900
C1264       C  0.62129342  0.39085802  0.27832686    -0.00500
C1265       C  0.59356709  0.39727442  0.25293556    -0.12200
C1266       C  0.59564993  0.39847844  0.22286868     0.01800
H1267       H  0.67762631  0.38199471  0.23956733     0.14700
H1268       H  0.57005896  0.40217199  0.25664530     0.14700
C1269       C  0.56608196  0.40591820  0.19829703     0.36400
C1270       C  0.68122122  0.37949297  0.29801525     0.36300
N1271       N  0.54228886  0.41211264  0.17879646    -0.44000
N1272       N  0.70478673  0.37457593  0.31808130    -0.44000
C1273       C  0.88571311  0.71001880  0.12374626    -0.00400
C1274       C  0.85247591  0.72049538  0.11172340    -0.12200
C1275       C  0.84209333  0.75851297  0.11314902     0.01900
C1276       C  0.86505888  0.78735362  0.12716344    -0.00500
C1277       C  0.89818754  0.77675695  0.13954510    -0.12200
C1278       C  0.90867601  0.73899307  0.13763857     0.01800
H1279       H  0.83432099  0.69890786  0.10102430     0.14700
H1280       H  0.91637106  0.79833170  0.15024935     0.14700
C1281       C  0.94318619  0.73128390  0.15034564     0.36400
C1282       C  0.80798869  0.76707283  0.09889857     0.36300
N1283       N  0.97091907  0.72551644  0.16042761    -0.44000
N1284       N  0.78064732  0.77381221  0.08735783    -0.44000
C1285       C  0.51917682  0.48007013  0.27751543    -0.00400
C1286       C  0.51686331  0.52024584  0.27551447    -0.12200
C1287       C  0.49783007  0.53808525  0.24897513     0.01900
C1288       C  0.98134150  0.51486158  0.22195697    -0.00500
C1289       C  0.98368301  0.47469749  0.22430902    -0.12200
C1290       C  0.00191173  0.45714278  0.25135262     0.01800
H1291       H  0.52994332  0.53803417  0.29481468     0.14700
H1292       H  0.97130073  0.45669202  0.20489587     0.14700
C1293       C  0.00215051  0.41549898  0.25158864     0.36400
C1294       C  0.49757537  0.57972420  0.24917395     0.36300
N1295       N  0.00198215  0.38215862  0.25160098    -0.44000
N1296       N  0.49759923  0.61305774  0.24957199    -0.44000
C1297       C  0.82413148  0.47081747  0.11816896    -0.00400
C1298       C  0.79684754  0.47145294  0.09171569    -0.12200
C1299       C  0.76701015  0.45400844  0.09129316     0.01900
C1300       C  0.76367159  0.43580340  0.11785295    -0.00500
C1301       C  0.79192262  0.43124912  0.14309654    -0.12200
C1302       C  0.82205673  0.44842736  0.14340141     0.01800
H1303       H  0.79828476  0.48763184  0.07177788     0.14700
H1304       H  0.78979358  0.41733334  0.16373375     0.14700
C1305       C  0.84943758  0.44581758  0.17089786     0.36400
C1306       C  0.73962161  0.45652922  0.06375064     0.36300
N1307       N  0.87147060  0.44365882  0.19287854    -0.44000
N1308       N  0.71765972  0.45820042  0.04167233    -0.44000
C1309       C  0.51579086  0.56626992  0.12096401    -0.00400
C1310       C  0.51692181  0.54670281  0.09441411    -0.12200
C1311       C  0.54562028  0.52885689  0.09290230     0.01900
C1312       C  0.57404966  0.52967481  0.11856725    -0.00500
C1313       C  0.57423600  0.55330056  0.14361961    -0.12200
C1314       C  0.54540690  0.57174172  0.14493740     0.01800
H1315       H  0.49457640  0.54285090  0.07560844     0.14700
H1316       H  0.59598733  0.55466562  0.16328878     0.14700
C1317       C  0.54612964  0.59268743  0.17246204     0.36400
C1318       C  0.54471684  0.50797144  0.06525123     0.36300
N1319       N  0.04586264  0.60530216  0.19331335    -0.44000
N1320       N  0.54401047  0.49129712  0.04309564    -0.44000
C1321       C  0.87080066  0.70525852  0.37732694    -0.00400
C1322       C  0.84806201  0.73115166  0.35945910    -0.12200
C1323       C  0.85600012  0.77019284  0.35787616     0.01900
C1324       C  0.88734745  0.78456867  0.37489535    -0.00500
C1325       C  0.91012653  0.75865829  0.39277005    -0.12200
C1326       C  0.90220783  0.71950455  0.39419333     0.01800
H1327       H  0.82431561  0.72063552  0.34573811     0.14700
H1328       H  0.93385561  0.76919216  0.40650179     0.14700
C1329       C  0.92667939  0.69495288  0.41388552     0.36400
C1330       C  0.83150486  0.79444818  0.33784012     0.36300
N1331       N  0.94640880  0.67545168  0.42969489    -0.44000
N1332       N  0.81176590  0.81370502  0.32177218    -0.44000
C1333       C  0.73163918  0.48397029  0.22038570    -0.00400
C1334       C  0.73583529  0.46211612  0.24725055    -0.12200
C1335       C  0.75747278  0.47398003  0.27518627     0.01900
C1336       C  0.77498443  0.50884037  0.27671760    -0.00500
C1337       C  0.77116674  0.53044017  0.24980537    -0.12200
C1338       C  0.75000281  0.51818735  0.22172906     0.01800
H1339       H  0.72217751  0.43545256  0.24644806     0.14700
H1340       H  0.78494346  0.55703110  0.25067746     0.14700
C1341       C  0.74894023  0.54025058  0.19460819     0.36400
C1342       C  0.76049816  0.45033319  0.30191684     0.36300
N1343       N  0.74818506  0.55774023  0.17281556    -0.44000
N1344       N  0.76325337  0.43138703  0.32339249    -0.44000
C1345       C  0.87568952  0.59803631  0.27825921    -0.00400
C1346       C  0.84850665  0.60874451  0.25328056    -0.12200
C1347       C  0.84994089  0.60860392  0.22296157     0.01900
C1348       C  0.87919034  0.59860127  0.21705328    -0.00500
C1349       C  0.90588894  0.58658689  0.24154951    -0.12200
C1350       C  0.90434874  0.58567932  0.27179618     0.01800
H1351       H  0.82578876  0.61713510  0.25725751     0.14700
H1352       H  0.92799286  0.57744676  0.23690679     0.14700
C1353       C  0.93252772  0.57165395  0.29534576     0.36400
C1354       C  0.82148789  0.61985431  0.19845940     0.36300
N1355       N  0.95507828  0.56005343  0.31406416    -0.44000
N1356       N  0.79878407  0.62870987  0.17864044    -0.44000
C1357       C  0.87855427  0.55750019  0.46818707    -0.00400
C1358       C  0.88372888  0.52371764  0.48568980    -0.12200
C1359       C  0.88200002  0.52151865  0.01354856     0.01900
C1360       C  0.87922097  0.55600196  0.02920717    -0.00500
C1361       C  0.87557857  0.59099538  0.01305273    -0.12200
C1362       C  0.87318670  0.59225519  0.48193273     0.01800
H1363       H  0.88740627  0.49680597  0.47515671     0.14700
H1364       H  0.87345325  0.61764832  0.02464493     0.14700
C1365       C  0.86593268  0.62745249  0.46445450     0.36400
C1366       C  0.88446014  0.48409316  0.02790541     0.36300
N1367       N  0.85998302  0.65553917  0.45030014    -0.44000
N1368       N  0.88649541  0.45404994  0.03928646    -0.44000
C1369       C  0.98882911  0.42794970  0.38111334    -0.00400
C1370       C  0.96007284  0.42170124  0.35669419    -0.12200
C1371       C  0.93061261  0.43988776  0.35623485     0.01900
C1372       C  0.92997618  0.46501705  0.38038303    -0.00500
C1373       C  0.95764528  0.46712568  0.40639480    -0.12200
C1374       C  0.98675469  0.44855126  0.40704059     0.01800
H1375       H  0.96137323  0.40585254  0.33661168     0.14700
H1376       H  0.95714918  0.48535901  0.42555729     0.14700
C1377       C  0.01492461  0.45286374  0.43379393     0.36400
C1378       C  0.90250981  0.43539542  0.32950400     0.36300
N1379       N  0.03753418  0.45594471  0.45522442    -0.44000
N1380       N  0.87989440  0.43167293  0.30815809    -0.44000
C1381       C  0.73892672  0.55897985  0.37578179    -0.00400
C1382       C  0.73575693  0.54337194  0.40310006    -0.12200
C1383       C  0.70651952  0.52555752  0.40393372     0.01900
C1384       C  0.67953270  0.52315974  0.37703612    -0.00500
C1385       C  0.68159412  0.54192357  0.35043576    -0.12200
C1386       C  0.71107235  0.55946195  0.34950260     0.01800
H1387       H  0.75703184  0.54245728  0.42328649     0.14700
H1388       H  0.66122530  0.53968608  0.32953143     0.14700
C1389       C  0.71331219  0.57306590  0.32025902     0.36400
C1390       C  0.70554704  0.50760427  0.43222782     0.36300
N1391       N  0.71510735  0.58363991  0.29674582    -0.44000
N1392       N  0.70491842  0.49312979  0.45490136    -0.44000
Fe1393     Fe  0.88881851  0.58443021  0.87629545     1.65800
Fe1394     Fe  0.83126114  0.51711020  0.87280812     1.73200
Fe1395     Fe  0.81074169  0.60551674  0.83978707     1.54400
O1396       O  0.82968944  0.65374894  0.86657642    -0.81900
O1397       O  0.80327144  0.50524697  0.82821505    -0.80200
O1398       O  0.88184858  0.64267050  0.87328103    -0.84400
O1399       O  0.88716401  0.58420901  0.83032818    -0.79200
O1400       O  0.77761933  0.59538475  0.86438055    -0.81000
O1401       O  0.87033049  0.48896272  0.86342717    -0.83800
C1402       C  0.86558750  0.60047698  0.80818416     0.97000
C1403       C  0.85895137  0.66569835  0.87192714     1.04400
O1404       O  0.84303634  0.56895882  0.86314390    -1.12700
O1405       O  0.85785463  0.52760639  0.91848426    -0.75200
O1406       O  0.88656914  0.58315321  0.92097472    -0.78700
O1407       O  0.84002677  0.61620050  0.81170445    -0.79400
C1408       C  0.87420130  0.55624956  0.93344700     0.95900
O1409       O  0.90954189  0.53086633  0.88329100    -0.77300
O1410       O  0.78945839  0.53555108  0.88214436    -0.82500
C1411       C  0.78704208  0.52753370  0.80711594     0.98500
C1412       C  0.77073601  0.56458254  0.87646386     1.04400
O1413       O  0.78781730  0.56387851  0.80933997    -0.78200
C1414       C  0.90040245  0.49726010  0.87427575     1.02700
Fe1415     Fe  0.85974492  0.59305457  0.61661532     1.65800
Fe1416     Fe  0.91725389  0.52643230  0.62818160     1.73200
Fe1417     Fe  0.93644311  0.61550443  0.66013711     1.54400
O1418       O  0.91995156  0.66267131  0.63203549    -0.81900
O1419       O  0.94047104  0.51695311  0.67386204    -0.80200
O1420       O  0.86723614  0.65104174  0.61972874    -0.84400
O1421       O  0.85619088  0.59402728  0.66114601    -0.79200
O1422       O  0.97249041  0.60536413  0.63909326    -0.81000
O1423       O  0.87598151  0.49987945  0.63527075    -0.83800
C1424       C  0.87682418  0.60902892  0.68490009     0.97000
C1425       C  0.89074065  0.67450151  0.62455591     1.04400
O1426       O  0.90517586  0.57856648  0.63468852    -1.12700
O1427       O  0.89518887  0.53397300  0.58125946    -0.75200
O1428       O  0.86702935  0.58948045  0.57354742    -0.78700
O1429       O  0.90343422  0.62569936  0.68440976    -0.79400
C1430       C  0.88009170  0.56097601  0.56365083     0.95900
O1431       O  0.83869029  0.53939286  0.60876544    -0.77300
O1432       O  0.96106721  0.54469103  0.62235210    -0.82500
C1433       C  0.95684308  0.53892686  0.69528463     0.98500
C1434       C  0.97978547  0.57417069  0.62804934     1.04400
O1435       O  0.95765790  0.57510486  0.69238527    -0.78200
C1436       C  0.84639656  0.50742395  0.62161832     1.02700
Fe1437     Fe  0.60604592  0.41693682  0.61751868     1.65800
Fe1438     Fe  0.66397346  0.48466722  0.62407351     1.73200
Fe1439     Fe  0.68322832  0.39620262  0.65753922     1.54400
O1440       O  0.65102048  0.38151682  0.68192783    -0.81900
O1441       O  0.70661055  0.46680732  0.61649624    -0.80200
O1442       O  0.60511976  0.41519063  0.66289988    -0.84400
O1443       O  0.61426992  0.35909951  0.61948047    -0.79200
O1444       O  0.70219505  0.43708454  0.69018964    -0.81000
O1445       O  0.64007429  0.47484400  0.57754969    -0.83800
C1446       C  0.63790843  0.33703308  0.62127627     0.97000
C1447       C  0.62556291  0.39768351  0.68512559     1.04400
O1448       O  0.65165271  0.43276599  0.63288866    -1.12700
O1449       O  0.62401732  0.51248605  0.63166505    -0.75200
O1450       O  0.58506883  0.47026380  0.61163460    -0.78700
O1451       O  0.66703085  0.34990504  0.62793054    -0.79400
C1452       C  0.59404743  0.50382506  0.62091704     0.95900
O1453       O  0.61052674  0.41988886  0.57347358    -0.77300
O1454       O  0.68936764  0.49557874  0.66954707    -0.82500
C1455       C  0.72615123  0.43875479  0.62391015     0.98500
C1456       C  0.70311595  0.47350825  0.69188118     1.04400
O1457       O  0.71990209  0.40883530  0.63737780    -0.78200
C1458       C  0.62450947  0.44618402  0.56191958     1.02700
Fe1459     Fe  0.63625213  0.40931976  0.87803246     1.65800
Fe1460     Fe  0.57883680  0.47706704  0.87160678     1.73200
Fe1461     Fe  0.55711640  0.38923039  0.83827072     1.54400
O1462       O  0.58534672  0.38281433  0.80909337    -0.81900
O1463       O  0.53409404  0.45848730  0.87552276    -0.80200
O1464       O  0.63659330  0.40485891  0.83241001    -0.84400
O1465       O  0.62825063  0.35195759  0.87842704    -0.79200
O1466       O  0.53315380  0.43250374  0.81008171    -0.81000
O1467       O  0.59977296  0.46642474  0.91759616    -0.83800
C1468       C  0.60518265  0.32791476  0.87181754     0.97000
C1469       C  0.61375579  0.39364202  0.80859264     1.04400
O1470       O  0.59063056  0.42496145  0.86301066    -1.12700
O1471       O  0.62068313  0.50655605  0.86866967    -0.75200
O1472       O  0.65819140  0.46183699  0.88182422    -0.78700
O1473       O  0.57566943  0.33855944  0.86139171    -0.79400
C1474       C  0.65032278  0.49643942  0.87687490     0.95900
O1475       O  0.63346354  0.41544324  0.92272228    -0.77300
O1476       O  0.55748811  0.48878435  0.82603259    -0.82500
C1477       C  0.51666774  0.42812034  0.87307722     0.98500
C1478       C  0.53736128  0.46803742  0.80611159     1.04400
O1479       O  0.52513061  0.39599173  0.86442123    -0.78200
C1480       C  0.61864680  0.44109646  0.93385083     1.02700
Fe1481     Fe  0.88808692  0.91701634  0.62850632     1.65800
Fe1482     Fe  0.83124511  0.98362816  0.62889853     1.73200
Fe1483     Fe  0.80829300  0.89839315  0.59183344     1.54400
O1484       O  0.83653640  0.88992838  0.56245349    -0.81900
O1485       O  0.78660040  0.96628574  0.63178806    -0.80200
O1486       O  0.88653598  0.91659109  0.58276541    -0.84400
O1487       O  0.87898704  0.85965223  0.62527981    -0.79200
O1488       O  0.78641293  0.94293089  0.56424984    -0.81000
O1489       O  0.85219967  0.96575217  0.67411038    -0.83800
C1490       C  0.85551840  0.83653045  0.62221752     0.97000
C1491       C  0.86411153  0.90187756  0.56029863     1.04400
O1492       O  0.84242750  0.93316987  0.61645060    -1.12700
O1493       O  0.87269168  0.01423225  0.62777673    -0.75200
O1494       O  0.91036004  0.96976496  0.63490818    -0.78700
O1495       O  0.82637056  0.84852622  0.61617500    -0.79400
C1496       C  0.90214211  0.00448409  0.63333545     0.95900
O1497       O  0.88729816  0.91730943  0.67352898    -0.77300
O1498       O  0.80923400  0.99945613  0.58370308    -0.82500
C1499       C  0.76792353  0.93717516  0.62761550     0.98500
C1500       C  0.79016134  0.97904533  0.56243657     1.04400
O1501       O  0.77522341  0.90561173  0.61716515    -0.78200
C1502       C  0.87125730  0.93824382  0.68703468     1.02700
Fe1503     Fe  0.86352127  0.90744666  0.87189273     1.65800
Fe1504     Fe  0.92155960  0.97541115  0.87388987     1.73200
Fe1505     Fe  0.94299061  0.88995747  0.91035064     1.54400
O1506       O  0.91411638  0.88029347  0.93896979    -0.81900
O1507       O  0.96647795  0.95892147  0.87176503    -0.80200
O1508       O  0.86412024  0.90473961  0.91757407    -0.84400
O1509       O  0.87236876  0.84969463  0.87245286    -0.79200
O1510       O  0.96386914  0.93501163  0.93858495    -0.81000
O1511       O  0.90172372  0.95839676  0.82841051    -0.83800
C1512       C  0.89621143  0.82722543  0.87657688     0.97000
C1513       C  0.88632902  0.89139984  0.94065590     1.04400
O1514       O  0.90938988  0.92428423  0.88520764    -1.12700
O1515       O  0.87998299  0.00509743  0.87430349    -0.75200
O1516       O  0.84180537  0.96036111  0.86776821    -0.78700
O1517       O  0.92558554  0.83946457  0.88586296    -0.79400
C1518       C  0.85053785  0.99517560  0.86961083     0.95900
O1519       O  0.86480868  0.91058068  0.82686989    -0.77300
O1520       O  0.94252311  0.99132364  0.91937845    -0.82500
C1521       C  0.98476680  0.92988309  0.87576540     0.98500
C1522       C  0.96056496  0.97108766  0.94111100     1.04400
O1523       O  0.97688212  0.89814601  0.88579323    -0.78200
C1524       C  0.88187570  0.93183210  0.81434718     1.02700
Fe1525     Fe  0.63683464  0.09537516  0.62855223     1.65800
Fe1526     Fe  0.57992992  0.02687058  0.62503085     1.73200
Fe1527     Fe  0.55855468  0.11391565  0.58949070     1.54400
O1528       O  0.57556743  0.16270121  0.61593334    -0.81900
O1529       O  0.55188971  0.01368812  0.58057706    -0.80200
O1530       O  0.62849595  0.15326180  0.62594549    -0.84400
O1531       O  0.63672616  0.09632761  0.58290811    -0.79200
O1532       O  0.52472943  0.10367576  0.61334866    -0.81000
O1533       O  0.61900179  0.99863012  0.61606566    -0.83800
C1534       C  0.61535409  0.11156373  0.56002221     0.97000
C1535       C  0.60467924  0.17549288  0.62278874     1.04400
O1536       O  0.59128725  0.07867441  0.61445397    -1.12700
O1537       O  0.60659179  0.03736656  0.67069501    -0.75200
O1538       O  0.63459264  0.09331278  0.67344656    -0.78700
O1539       O  0.58861149  0.12542931  0.56219763    -0.79400
C1540       C  0.62328626  0.06552578  0.68591984     0.95900
O1541       O  0.65751534  0.04193901  0.63465597    -0.77300
O1542       O  0.53872787  0.04600754  0.63466575    -0.82500
C1543       C  0.53662195  0.03473518  0.55813590     0.98500
C1544       C  0.51929351  0.07429177  0.62788810     1.04400
O1545       O  0.53738923  0.07119238  0.55905134    -0.78200
C1546       C  0.64890028  0.00784156  0.62654314     1.02700
Fe1547     Fe  0.61812993  0.08831084  0.87364240     1.65800
Fe1548     Fe  0.67477089  0.02101432  0.87620468     1.73200
Fe1549     Fe  0.69734938  0.10911877  0.91007436     1.54400
O1550       O  0.67865733  0.15838179  0.88507692    -0.81900
O1551       O  0.70063400  0.00888036  0.92090890    -0.80200
O1552       O  0.62602233  0.14586251  0.87410625    -0.84400
O1553       O  0.62005483  0.09150580  0.91967236    -0.79200
O1554       O  0.72883555  0.10083046  0.88376341    -0.81000
O1555       O  0.63495336  0.99107348  0.88334020    -0.83800
C1556       C  0.64256440  0.10600663  0.94230785     0.97000
C1557       C  0.64919117  0.16946180  0.87748710     1.04400
O1558       O  0.66372007  0.07281137  0.88656296    -1.12700
O1559       O  0.65021820  0.03224800  0.83040389    -0.75200
O1560       O  0.61893474  0.08462303  0.82831128    -0.78700
O1561       O  0.66980280  0.11848376  0.93981657    -0.79400
C1562       C  0.63268329  0.05973333  0.81552271     0.95900
O1563       O  0.59696864  0.03515822  0.87003465    -0.77300
O1564       O  0.71745629  0.03980863  0.86868518    -0.82500
C1565       C  0.71964409  0.03006218  0.94141360     0.98500
C1566       C  0.73574206  0.06949536  0.87272627     1.04400
O1567       O  0.72099773  0.06636187  0.93886641    -0.78200
C1568       C  0.60526464  0.00074999  0.87603533     1.02700
C1569       C  0.62867542  0.06541896  0.71952647    -0.00400
C1570       C  0.62056697  0.09801034  0.73385975    -0.12200
C1571       C  0.62070508  0.09688851  0.76473026     0.01900
C1572       C  0.62956158  0.06258085  0.78204436    -0.00500
C1573       C  0.63846558  0.03041751  0.76756392    -0.12200
C1574       C  0.63806342  0.03154596  0.73682599     0.01800
H1575       H  0.61302795  0.12406255  0.72059582     0.14700
H1576       H  0.64581568  0.00393697  0.78025948     0.14700
C1577       C  0.64801928  0.99761665  0.72368904     0.36400
C1578       C  0.61180414  0.13147469  0.77778777     0.36300
N1579       N  0.65604080  0.97047145  0.71318238    -0.44000
N1580       N  0.60452599  0.15923397  0.78810094    -0.44000
C1581       C  0.62108784  0.11258591  0.52927951    -0.00400
C1582       C  0.65275574  0.10624881  0.52741031    -0.12200
C1583       C  0.66355256  0.11021454  0.00090527     0.01900
C1584       C  0.63732222  0.10811489  0.97313448    -0.00500
C1585       C  0.60524324  0.10688432  0.97494880    -0.12200
C1586       C  0.59539492  0.11811283  0.50148390     0.01800
H1587       H  0.67285383  0.10278207  0.54825750     0.14700
H1588       H  0.58488646  0.10554364  0.95407101     0.14700
C1589       C  0.56250038  0.12805900  0.50089196     0.36400
C1590       C  0.69741892  0.11264078  0.00142353     0.36300
N1591       N  0.53617632  0.13645799  0.50022490    -0.44000
N1592       N  0.72461347  0.11527265  0.00215139    -0.44000
C1593       C  0.97920311  0.98864932  0.97103243    -0.00400
C1594       C  0.00083725  0.96470727  0.99264017    -0.12200
C1595       C  0.99412740  0.98497328  0.52836837     0.01900
C1596       C  0.51685360  0.01708834  0.52914441    -0.00500
C1597       C  0.51953976  0.03273167  0.50160463    -0.12200
C1598       C  0.47363762  0.02530240  0.98206541     0.01800
H1599       H  0.00347238  0.93471535  0.98735734     0.14700
H1600       H  0.53776759  0.05478402  0.50233028     0.14700
C1601       C  0.44853371  0.05032621  0.96383541     0.36400
C1602       C  0.98918562  0.96865427  0.55578855     0.36300
N1603       N  0.42846187  0.07058419  0.94941790    -0.44000
N1604       N  0.98496890  0.95570963  0.57770146    -0.44000
C1605       C  0.82490022  0.02454147  0.86632652    -0.00400
C1606       C  0.82529334  0.04784241  0.89151611    -0.12200
C1607       C  0.79709916  0.06771449  0.89234129     0.01900
C1608       C  0.76798675  0.06430404  0.86754631    -0.00500
C1609       C  0.76898732  0.04455541  0.84100239    -0.12200
C1610       C  0.79719992  0.02500853  0.84013635     0.01800
H1611       H  0.84662454  0.04782844  0.91161993     0.14700
H1612       H  0.74687698  0.04189600  0.82179782     0.14700
C1613       C  0.79678697  0.00439585  0.81252479     0.36400
C1614       C  0.79756864  0.08727306  0.92040642     0.36300
N1615       N  0.79649678  0.98829268  0.79023662    -0.44000
N1616       N  0.79807337  0.10286480  0.94296214    -0.44000
C1617       C  0.57806071  0.97249346  0.87279585    -0.00400
C1618       C  0.55006831  0.97832403  0.84790191    -0.12200
C1619       C  0.51978996  0.96268229  0.84732284     0.01900
C1620       C  0.51706661  0.93789156  0.87117344    -0.00500
C1621       C  0.54596067  0.92817804  0.89435746    -0.12200
C1622       C  0.57627492  0.94587342  0.89569450     0.01800
H1623       H  0.55120910  0.99852958  0.83000047     0.14700
H1624       H  0.54427781  0.91007611  0.91327146     0.14700
C1625       C  0.60402232  0.93960256  0.92232147     0.36400
C1626       C  0.99229676  0.97560565  0.82326186     0.36300
N1627       N  0.62616282  0.93465613  0.94381469    -0.44000
N1628       N  0.97048800  0.98818282  0.80425350    -0.44000
C1629       C  0.74136354  0.01278338  0.96981296    -0.00400
C1630       C  0.76329270  0.03721000  0.99113046    -0.12200
C1631       C  0.78580999  0.01616598  0.51436334     0.01900
C1632       C  0.77089365  0.99652800  0.53368467    -0.00500
C1633       C  0.73731386  0.98755667  0.52322084    -0.12200
C1634       C  0.74099395  0.97313328  0.97648577     0.01800
H1635       H  0.76547245  0.06735639  0.98581664     0.14700
H1636       H  0.72578234  0.97263659  0.53827307     0.14700
C1637       C  0.72161733  0.94520575  0.95504547     0.36400
C1638       C  0.82025897  0.02584547  0.52422986     0.36300
N1639       N  0.70638265  0.92256409  0.93796310    -0.44000
N1640       N  0.84784463  0.03371361  0.53223250    -0.44000
C1641       C  0.88117955  0.88982705  0.97155998    -0.00400
C1642       C  0.90904265  0.88888512  0.99763325    -0.12200
C1643       C  0.89926323  0.88816396  0.52575838     0.01900
C1644       C  0.86916092  0.89891567  0.52972583    -0.00500
C1645       C  0.84242643  0.90596035  0.50369023    -0.12200
C1646       C  0.84991787  0.89027759  0.97607847     0.01800
H1647       H  0.93337971  0.88864106  0.99484431     0.14700
H1648       H  0.81903326  0.91403651  0.50655911     0.14700
C1649       C  0.82010641  0.89011096  0.95077882     0.36400
C1650       C  0.92692779  0.87797691  0.55148192     0.36300
N1651       N  0.79606961  0.88991477  0.93065824    -0.44000
N1652       N  0.94903257  0.86948243  0.57204381    -0.44000
C1653       C  0.87398005  0.92982205  0.71925868    -0.00400
C1654       C  0.90479390  0.92654910  0.74089921    -0.12200
C1655       C  0.90730336  0.92226356  0.77198223     0.01900
C1656       C  0.87911995  0.92565352  0.78179093    -0.00500
C1657       C  0.84830974  0.92370814  0.75995102    -0.12200
C1658       C  0.84579283  0.92358443  0.72869638     0.01800
H1659       H  0.92666498  0.92649586  0.73351419     0.14700
H1660       H  0.82641113  0.92175485  0.76724471     0.14700
C1661       C  0.81538935  0.91114862  0.70717669     0.36400
C1662       C  0.93764937  0.90861760  0.79252768     0.36300
N1663       N  0.79140484  0.89904719  0.69050063    -0.44000
N1664       N  0.96156458  0.89571287  0.80835585    -0.44000
C1665       C  0.92854336  0.03361363  0.63781248    -0.00400
C1666       C  0.92798147  0.05955287  0.61413949    -0.12200
C1667       C  0.95689429  0.07795237  0.61280780     0.01900
C1668       C  0.98684260  0.07029959  0.63558655    -0.00500
C1669       C  0.98614567  0.04884906  0.66147931    -0.12200
C1670       C  0.95734736  0.03052840  0.66276013     0.01800
H1671       H  0.90575090  0.06241952  0.59506909     0.14700
H1672       H  0.00884452  0.04345982  0.67949221     0.14700
C1673       C  0.95843576  0.00665588  0.68899577     0.36400
C1674       C  0.95582059  0.10027922  0.58583864     0.36300
N1675       N  0.95936115  0.98767266  0.71008874    -0.44000
N1676       N  0.95503745  0.11810759  0.56420065    -0.44000
C1677       C  0.73575225  0.94321810  0.63321888    -0.00400
C1678       C  0.70679018  0.93340197  0.60996477    -0.12200
C1679       C  0.67689192  0.95162317  0.60825912     0.01900
C1680       C  0.67572020  0.97944012  0.63048652    -0.00500
C1681       C  0.70363232  0.98523814  0.65566941    -0.12200
C1682       C  0.73344359  0.96833093  0.65695080     0.01800
H1683       H  0.70816106  0.91476096  0.59137963     0.20300
H1684       H  0.70286946  0.00581135  0.67330799     0.14700
C1685       C  0.76180727  0.98104206  0.68128345     0.36400
C1686       C  0.64887450  0.94426749  0.58198474     0.36300
N1687       N  0.78418432  0.99216192  0.70068978    -0.44000
N1688       N  0.62637113  0.93843407  0.56091146    -0.44000
C1689       C  0.61479390  0.28648705  0.87467316    -0.00400
C1690       C  0.64734167  0.27741226  0.89155569    -0.12200
C1691       C  0.66000703  0.24033764  0.89128308     0.01900
C1692       C  0.63996256  0.21084776  0.87406326    -0.00500
C1693       C  0.60752853  0.21989496  0.85708283    -0.12200
C1694       C  0.59486296  0.25694773  0.85729960     0.01800
H1695       H  0.66328986  0.29952949  0.90489372     0.14700
H1696       H  0.59163675  0.19764749  0.84384429     0.14700
C1697       C  0.56156234  0.26360300  0.83888848     0.36400
C1698       C  0.69327935  0.23338534  0.90970467     0.36300
N1699       N  0.53482231  0.26862548  0.82410924    -0.44000
N1700       N  0.71997954  0.22802785  0.92445727    -0.44000
C1701       C  0.61193370  0.21745611  0.62453207    -0.00400
C1702       C  0.59113228  0.24198590  0.60316255    -0.12200
C1703       C  0.59988583  0.28054678  0.60046886     0.01900
C1704       C  0.63050522  0.29513862  0.61891516    -0.00500
C1705       C  0.65127794  0.27055141  0.64024124    -0.12200
C1706       C  0.64202159  0.23237195  0.64359757     0.01800
H1707       H  0.56830126  0.23083577  0.58807015     0.14700
H1708       H  0.67393795  0.28177603  0.65558943     0.14700
C1709       C  0.66303187  0.20975679  0.66805654     0.36400
C1710       C  0.57671690  0.30451053  0.57871887     0.36300
N1711       N  0.67965457  0.19180123  0.68789933    -0.44000
N1712       N  0.55800385  0.32377437  0.56152450    -0.44000
C1713       C  0.62387428  0.44358610  0.52910733    -0.00400
C1714       C  0.62728422  0.47771618  0.51369997    -0.12200
C1715       C  0.62025723  0.47614980  0.98282154     0.01900
C1716       C  0.62213245  0.44147202  0.96709337    -0.00500
C1717       C  0.62435448  0.40638131  0.98281363    -0.12200
C1718       C  0.62325191  0.40799062  0.51371069     0.01800
H1719       H  0.62860920  0.50521526  0.52523541     0.14700
H1720       H  0.62523313  0.37963870  0.97087183     0.14700
C1721       C  0.62216688  0.37154463  0.52857421     0.36400
C1722       C  0.61801815  0.51346088  0.96829606     0.36300
N1723       N  0.62156677  0.34209863  0.54027203    -0.44000
N1724       N  0.61597106  0.54337280  0.95670523    -0.44000
C1725       C  0.62120756  0.39612659  0.71646198    -0.00400
C1726       C  0.64518978  0.37701405  0.74010622    -0.12200
C1727       C  0.64403336  0.37664143  0.77049561     0.01900
C1728       C  0.61844849  0.39536115  0.77786003    -0.00500
C1729       C  0.59464221  0.41457218  0.75464873    -0.12200
C1730       C  0.59572362  0.41527331  0.72428626     0.01800
H1731       H  0.66521536  0.36225372  0.73504303     0.14700
H1732       H  0.57502371  0.42939424  0.76040773     0.14700
C1733       C  0.57044921  0.43622747  0.70210455     0.36400
C1734       C  0.66853063  0.35567215  0.79342116     0.36300
N1735       N  0.55009932  0.45313458  0.68452497    -0.44000
N1736       N  0.68805138  0.33878747  0.81184879    -0.44000
C1737       C  0.88254248  0.71631214  0.62318148    -0.00400
C1738       C  0.84991191  0.72654145  0.62075518    -0.12200
C1739       C  0.84046560  0.76499697  0.62131983     0.01900
C1740       C  0.86381606  0.79472049  0.62430874    -0.00500
C1741       C  0.89654747  0.78445183  0.62713197    -0.12200
C1742       C  0.90599405  0.74601974  0.62658052     0.01800
H1743       H  0.83146949  0.70441596  0.61875618     0.14700
H1744       H  0.91507726  0.80651515  0.62931331     0.14700
C1745       C  0.93986337  0.73837544  0.62926419     0.36400
C1746       C  0.80667132  0.77268156  0.61887441     0.36300
N1747       N  0.96703336  0.73243644  0.63143072    -0.44000
N1748       N  0.77956103  0.77868415  0.61691139    -0.44000
C1749       C  0.51708750  0.48588909  0.77752273    -0.00400
C1750       C  0.51200404  0.52573311  0.77725221    -0.12200
C1751       C  0.49175877  0.54392131  0.75136518     0.01900
C1752       C  0.97684413  0.52145692  0.72433045    -0.00500
C1753       C  0.98179286  0.48152676  0.72481824    -0.12200
C1754       C  0.00167296  0.46330911  0.75079822     0.01800
H1755       H  0.52337374  0.54275547  0.79755483     0.14700
H1756       H  0.97054213  0.46428445  0.70461106     0.14700
C1757       C  0.00600314  0.42224741  0.74875989     0.36400
C1758       C  0.48733676  0.58493289  0.75352225     0.36300
N1759       N  0.00929368  0.38937141  0.74691906    -0.44000
N1760       N  0.48387086  0.61773914  0.75560564    -0.44000
C1761       C  0.81915232  0.47973841  0.62015829    -0.00400
C1762       C  0.79216758  0.47972927  0.59344564    -0.12200
C1763       C  0.76229786  0.46248368  0.59294132     0.01900
C1764       C  0.75890860  0.44421914  0.61946126    -0.00500
C1765       C  0.78676651  0.44072154  0.64516788    -0.12200
C1766       C  0.81666892  0.45859771  0.64585768     0.01800
H1767       H  0.79380020  0.49539337  0.57333668     0.14700
H1768       H  0.78431939  0.42738334  0.66591141     0.14700
C1769       C  0.84296207  0.45858204  0.67431224     0.36400
C1770       C  0.73488000  0.46582334  0.56547744     0.36300
N1771       N  0.86390205  0.45870763  0.69723112    -0.44000
N1772       N  0.71291355  0.46851971  0.54349343    -0.44000
C1773       C  0.51075020  0.57043022  0.62267896    -0.00400
C1774       C  0.51143502  0.55207353  0.59554363    -0.12200
C1775       C  0.53940193  0.53292715  0.59371946     0.01900
C1776       C  0.56788761  0.53238874  0.61930656    -0.00500
C1777       C  0.56848515  0.55447166  0.64528855    -0.12200
C1778       C  0.54008667  0.57317823  0.64728421     0.01800
H1779       H  0.48904605  0.54972701  0.57658783     0.14700
H1780       H  0.59010862  0.55416684  0.66509999     0.14700
C1781       C  0.54060677  0.59082624  0.67610396     0.36400
C1782       C  0.53732627  0.51173754  0.56594104     0.36300
N1783       N  0.04002499  0.59574046  0.70255879    -0.44000
N1784       N  0.53539531  0.49456293  0.54372609    -0.44000
C1785       C  0.86756316  0.70745313  0.87462406    -0.00400
C1786       C  0.84881021  0.73309616  0.85273828    -0.12200
C1787       C  0.85914572  0.77142777  0.85132484     0.01900
C1788       C  0.88838939  0.78526680  0.87270816    -0.00500
C1789       C  0.90741399  0.75940946  0.89417532    -0.12200
C1790       C  0.89747882  0.72089767  0.89512260     0.01800
H1791       H  0.82678897  0.72275562  0.83586328     0.14700
H1792       H  0.92958100  0.76957396  0.91094521     0.14700
C1793       C  0.91834648  0.69583624  0.91775450     0.36400
C1794       C  0.84004723  0.79551512  0.82678340     0.36300
N1795       N  0.93511678  0.67563066  0.93574005    -0.44000
N1796       N  0.82497400  0.81472386  0.80695444    -0.44000
C1797       C  0.72261442  0.49000686  0.72121788    -0.00400
C1798       C  0.71997534  0.47336572  0.74848919    -0.12200
C1799       C  0.74142392  0.48412195  0.77693803     0.01900
C1800       C  0.76604337  0.51179921  0.77811959    -0.00500
C1801       C  0.76836240  0.52871857  0.75089882    -0.12200
C1802       C  0.74705894  0.51793013  0.72252430     0.01800
H1803       H  0.70128233  0.45165930  0.74748035     0.14700
H1804       H  0.78716634  0.55025491  0.75184189     0.14700
C1805       C  0.75224257  0.53408728  0.69513477     0.36400
C1806       C  0.73685925  0.46745691  0.80441518     0.36300
N1807       N  0.75662679  0.54689005  0.67324956    -0.44000
N1808       N  0.73292946  0.45400080  0.82628216    -0.44000
C1809       C  0.86893617  0.60135958  0.77654880    -0.00400
C1810       C  0.84207411  0.61439764  0.75223225    -0.12200
C1811       C  0.84331139  0.61596588  0.72192234     0.01900
C1812       C  0.87205687  0.60514568  0.71545055    -0.00500
C1813       C  0.89841574  0.59101235  0.73923809    -0.12200
C1814       C  0.89709100  0.58847014  0.76941919     0.01800
H1815       H  0.81967893  0.62342315  0.75672691     0.14700
H1816       H  0.92032776  0.58141677  0.73401912     0.14700
C1817       C  0.92484004  0.57205488  0.79209518     0.36400
C1818       C  0.81528371  0.62981031  0.69815381     0.36300
N1819       N  0.94706149  0.55850896  0.81002623    -0.44000
N1820       N  0.79274281  0.64081401  0.67911768    -0.44000
C1821       C  0.87806855  0.55766570  0.96676715    -0.00400
C1822       C  0.88142926  0.52275054  0.98279793    -0.12200
C1823       C  0.88404245  0.52399563  0.51646585     0.01900
C1824       C  0.87861918  0.55886810  0.53051462    -0.00500
C1825       C  0.87318051  0.59267305  0.51273251    -0.12200
C1826       C  0.87497413  0.59210600  0.98212905     0.01800
H1827       H  0.88328889  0.49606963  0.97109380     0.14700
H1828       H  0.86906854  0.61963775  0.52290492     0.14700
C1829       C  0.86944931  0.62864678  0.96638780     0.36400
C1830       C  0.88933118  0.48760569  0.53251922     0.36300
N1831       N  0.86482721  0.65794126  0.95379824    -0.44000
N1832       N  0.89372808  0.45842218  0.54530150    -0.44000
C1833       C  0.98594119  0.43089145  0.87933719    -0.00400
C1834       C  0.95792962  0.42592843  0.85390124    -0.12200
C1835       C  0.92838865  0.44453856  0.85256256     0.01900
C1836       C  0.92662754  0.46826687  0.87715034    -0.00500
C1837       C  0.95352778  0.46929667  0.90393951    -0.12200
C1838       C  0.98288569  0.45078778  0.90523578     0.01800
H1839       H  0.96008233  0.41101805  0.83371655     0.14700
H1840       H  0.95229196  0.48667558  0.92330863     0.14700
C1841       C  0.01034290  0.45455196  0.93268314     0.36400
C1842       C  0.90172736  0.44241367  0.82444325     0.36300
N1843       N  0.03237509  0.45729525  0.95465694    -0.44000
N1844       N  0.88042763  0.44072232  0.80182550    -0.44000
C1845       C  0.73787222  0.55935790  0.88085372    -0.00400
C1846       C  0.73538851  0.53890891  0.90661922    -0.12200
C1847       C  0.70569324  0.52183371  0.90699044     0.01900
C1848       C  0.67772130  0.52446716  0.88100496    -0.00500
C1849       C  0.67926302  0.54800533  0.85651055    -0.12200
C1850       C  0.70902674  0.56533910  0.85619167     0.01800
H1851       H  0.75722059  0.53406544  0.92566865     0.14700
H1852       H  0.65805095  0.54996375  0.83639479     0.14700
C1853       C  0.71011261  0.58494151  0.82859615     0.36400
C1854       C  0.70490085  0.49989905  0.93372140     0.36300
N1855       N  0.71109105  0.60051468  0.80645280    -0.44000
N1856       N  0.70412458  0.48237951  0.95508922    -0.44000
loop_ 
_geom_bond_atom_site_label_1 
_geom_bond_atom_site_label_2 
_geom_bond_distance 
_geom_bond_site_symmetry_2 
_ccdc_geom_bond_type 
Fe1          O17   2.048       .  S
Fe1           O7   2.083       .  S
Fe1          O14   2.080       .  S
Fe1           O6   2.049       .  S
Fe1          O12   1.943       .  S
Fe2           O5   2.067       .  S
Fe2           O9   2.089       .  S
Fe2          O13   2.089       .  S
Fe2          O18   2.060       .  S
Fe2          O12   1.953       .  S
Fe3          O21   2.047       .  S
Fe3           O8   2.077       .  S
Fe3          O15   2.068       .  S
Fe3           O4   2.083       .  S
Fe3          O12   1.963       .  S
O4           C11   1.269       .  A
O5           C19   1.274       .  A
O6           C11   1.259       .  A
O7           C10   1.282       .  A
O8           C20   1.272       .  A
O9           C22   1.263       .  A
C10          O15   1.275       .  A
C10         C417   1.494       .  S
C11         C393   1.491       .  S
O13          C16   1.284       .  A
O14          C16   1.285       .  A
C16         C429   1.483       .  S
O17          C22   1.257       .  A
O18          C20   1.268       .  A
C19          O21   1.269       .  A
C19         C408   1.472       .  S
C20         C453   1.483       .  S
C22         C444   1.492       .  S
Fe23         O39   2.050       .  S
Fe23         O29   2.083       .  S
Fe23         O36   2.076       .  S
Fe23         O28   2.045       .  S
Fe23         O34   1.947       .  S
Fe24         O27   2.060       .  S
Fe24         O31   2.090       .  S
Fe24         O35   2.082       .  S
Fe24         O40   2.065       .  S
Fe24         O34   1.943       .  S
Fe25         O43   2.032       .  S
Fe25         O30   2.087       .  S
Fe25         O37   2.072       .  S
Fe25         O26   2.071       .  S
Fe25         O34   1.959       .  S
O26          C33   1.266       .  A
O27          C41   1.271       .  A
O28          C33   1.258       .  A
O29          C32   1.283       .  A
O30          C42   1.275       .  A
O31          C44   1.263       .  A
C32          O37   1.278       .  A
C32         C420   1.479       .  S
C33         C345   1.481       .  S
O35          C38   1.282       .  A
O36          C38   1.285       .  A
C38         C432   1.490       .  S
O39          C44   1.257       .  A
O40          C42   1.272       .  A
C41          O43   1.262       .  A
C41         C360   1.479       .  S
C42        C1309   1.490       .  S
C44         C369   1.489       .  S
Fe45         O61   2.067       .  S
Fe45         O51   2.036       .  S
Fe45         O58   2.039       .  S
Fe45         O50   2.079       .  S
Fe45         O56   1.944       .  S
Fe46         O49   2.064       .  S
Fe46         O53   2.082       .  S
Fe46         O57   2.095       .  S
Fe46         O62   2.068       .  S
Fe46         O56   1.947       .  S
Fe47         O65   2.081       .  S
Fe47         O52   2.041       .  S
Fe47         O59   2.074       .  S
Fe47         O48   2.077       .  S
Fe47         O56   1.956       .  S
O48          C55   1.279       .  A
O49          C63   1.270       .  A
O50          C55   1.283       .  A
O51          C54   1.256       .  A
O52          C64   1.267       .  A
O53          C66   1.283       .  A
C54          O59   1.267       .  A
C54         C312   1.482       .  S
C55         C333   1.492       .  S
O57          C60   1.265       .  A
O58          C60   1.255       .  A
C60         C384   1.489       .  S
O61          C66   1.282       .  A
O62          C64   1.274       .  A
C63          O65   1.272       .  A
C63         C372   1.485       .  S
C64         C405   1.472       .  S
C66         C321   1.481       .  S
Fe67         O83   2.095       .  S
Fe67         O73   2.031       .  S
Fe67         O80   2.041       .  S
Fe67         O72   2.094       .  S
Fe67         O78   1.948       .  S
Fe68         O71   2.071       .  S
Fe68         O75   2.072       .  S
Fe68         O79   2.090       .  S
Fe68         O84   2.060       .  S
Fe68         O78   1.949       .  S
Fe69         O87   2.072       .  S
Fe69         O74   2.036       .  S
Fe69         O81   2.068       .  S
Fe69         O70   2.069       .  S
Fe69         O78   1.968       .  S
O70          C77   1.278       .  A
O71          C85   1.272       .  A
O72          C77   1.286       .  A
O73          C76   1.256       .  A
O74          C86   1.262       .  A
O75          C88   1.280       .  A
C76          O81   1.263       .  A
C76         C297   1.492       .  S
C77         C336   1.490       .  S
O79          C82   1.264       .  A
O80          C82   1.255       .  A
C82         C456   1.485       .  S
O83          C88   1.287       .  A
O84          C86   1.271       .  A
C85          O87   1.272       .  A
C85        C1369   1.482   1_455  S
C86         C357   1.479       .  S
C88         C324   1.483       .  S
Fe89        O105   2.071       .  S
Fe89         O95   2.034       .  S
Fe89        O102   2.045       .  S
Fe89         O94   2.070       .  S
Fe89        O100   1.947       .  S
Fe90         O93   2.036       .  S
Fe90         O97   2.093       .  S
Fe90        O101   2.073   1_565  S
Fe90        O106   2.069       .  S
Fe90        O100   1.947       .  S
Fe91        O109   2.106       .  S
Fe91         O96   2.032       .  S
Fe91        O103   2.078       .  S
Fe91         O92   2.084       .  S
Fe91        O100   1.965       .  S
O92          C99   1.280       .  A
O93         C107   1.261       .  A
O94          C99   1.280       .  A
O95          C98   1.257       .  A
O96         C108   1.267       .  A
O97         C110   1.287       .  A
C98         O103   1.269       .  A
C98         C348   1.480       .  S
C99         C252   1.495       .  S
O101        C104   1.258   1_545  A
O102        C104   1.256       .  A
C104        C273   1.484   1_565  S
O105        C110   1.283       .  A
O106        C108   1.275       .  A
C107        O109   1.276       .  A
C107        C285   1.496       .  S
C108        C240   1.481       .  S
C110        C261   1.476       .  S
Fe111       O127   2.072       .  S
Fe111       O117   2.034       .  S
Fe111       O124   2.033       .  S
Fe111       O116   2.070       .  S
Fe111       O122   1.954       .  S
Fe112       O115   2.035       .  S
Fe112       O119   2.085       .  S
Fe112       O123   2.077   1_565  S
Fe112       O128   2.072       .  S
Fe112       O122   1.960       .  S
Fe113       O131   2.099       .  S
Fe113       O118   2.055       .  S
Fe113       O125   2.089       .  S
Fe113       O114   2.074       .  S
Fe113       O122   1.966       .  S
O114        C121   1.278       .  A
O115        C129   1.262       .  A
O116        C121   1.279       .  A
O117        C120   1.256       .  A
O118        C130   1.269       .  A
O119        C132   1.283       .  A
C120        O125   1.270       .  A
C120        C396   1.494       .  S
C121        C249   1.492       .  S
O123        C126   1.260   1_545  A
O124        C126   1.255       .  A
C126        C213   1.481   1_565  S
O127        C132   1.281       .  A
O128        C130   1.275       .  A
C129        O131   1.275       .  A
C129       C1156   1.491       .  S
C130        C201   1.469       .  S
C132        C264   1.473       .  S
Fe133       O149   2.039       .  S
Fe133       O139   2.079       .  S
Fe133       O146   2.080       .  S
Fe133       O138   2.037       .  S
Fe133       O144   1.942       .  S
Fe134       O137   2.072       .  S
Fe134       O141   2.095   1_545  S
Fe134       O145   2.094       .  S
Fe134       O150   2.051       .  S
Fe134       O144   1.952       .  S
Fe135       O153   2.044       .  S
Fe135       O140   2.076       .  S
Fe135       O147   2.078       .  S
Fe135       O136   2.073       .  S
Fe135       O144   1.959       .  S
O136        C143   1.266       .  A
O137        C151   1.273       .  A
O138        C143   1.257       .  A
O139        C142   1.282       .  A
O140        C152   1.272       .  A
O141        C154   1.264   1_565  A
C142        O147   1.277       .  A
C142        C189   1.490       .  S
C143        C309   1.482       .  S
O145        C148   1.283       .  A
O146        C148   1.282       .  A
C148        C177   1.485       .  S
O149        C154   1.259       .  A
O150        C152   1.269       .  A
C151        O153   1.267       .  A
C151        C204   1.487       .  S
C152       C1204   1.481   1_455  S
C154        C288   1.495   1_545  S
Fe155       O171   2.026       .  S
Fe155       O161   2.086       .  S
Fe155       O168   2.091       .  S
Fe155       O160   2.028       .  S
Fe155       O166   1.939       .  S
Fe156       O159   2.065       .  S
Fe156       O163   2.088   1_545  S
Fe156       O167   2.083       .  S
Fe156       O172   2.052       .  S
Fe156       O166   1.955       .  S
Fe157       O175   2.043       .  S
Fe157       O162   2.064       .  S
Fe157       O169   2.070       .  S
Fe157       O158   2.065       .  S
Fe157       O166   1.961       .  S
O158        C165   1.263       .  A
O159        C173   1.273       .  A
O160        C165   1.254       .  A
O161        C164   1.285       .  A
O162        C174   1.267       .  A
O163        C176   1.260       .  A
C164        O169   1.276       .  A
C164        C192   1.485       .  S
C165        C300   1.489       .  S
O167        C170   1.284       .  A
O168        C170   1.287       .  A
C170        C180   1.497       .  S
O171        C176   1.255   1_545  A
O172        C174   1.267       .  A
C173        O175   1.266       .  A
C173        C237   1.460       .  S
C174        C216   1.475       .  S
C176        C225   1.485       .  S
C177        C178   1.405       .  A
C177        C182   1.410       .  A
C178        C179   1.408       .  A
C178        H183   1.085       .  S
C179        C180   1.419       .  A
C179        C186   1.444       .  S
C180        C181   1.409       .  A
C181        C182   1.400       .  A
C181        H184   1.085   1_545  S
C182        C185   1.445   1_545  S
C185        N187   1.157       .  T
C186        N188   1.158       .  T
C189        C190   1.402       .  A
C189        C194   1.421       .  A
C190        C655   1.402       .  A
C190        H195   1.084       .  S
C191        C192   1.420       .  A
C191        C654   1.400       .  A
C191        C198   1.444       .  S
C192        C193   1.398       .  A
C193        C658   1.400       .  A
C193        H196   1.084       .  S
C194        C657   1.399   1_554  A
C194        C197   1.443       .  S
C197        N199   1.157       .  T
C198        N200   1.157       .  T
C201        C202   1.406       .  A
C201       C1134   1.408   1_565  A
C202        C667   1.400       .  A
C202        H207   1.085       .  S
C203        C666   1.392   1_554  A
C203       C1132   1.407   1_565  A
C203        C210   1.444       .  S
C204        C205   1.412   1_455  A
C204       C1131   1.409   1_545  A
C205        C670   1.401   1_554  A
C205        H208   1.083       .  S
C206       C1129   1.409   1_545  A
C206        C669   1.399   1_655  A
C206        C209   1.444   1_655  S
C209        N211   1.157       .  T
C210        N212   1.157       .  T
C213        C214   1.405       .  A
C213        C218   1.415       .  A
C214        C215   1.407       .  A
C214        H219   1.084       .  S
C215        C216   1.414       .  A
C215        C222   1.444       .  S
C216        C217   1.400       .  A
C217        C218   1.393       .  A
C217        H220   1.086       .  S
C218        C221   1.445   1_545  S
C221        N223   1.157       .  T
C222        N224   1.157       .  T
C225        C226   1.400       .  A
C225        C230   1.412       .  A
C226        C227   1.390       .  A
C226        H231   1.088       .  S
C227        C228   1.420       .  A
C227       C1162   1.446   1_455  S
C228       C1057   1.491   1_455  S
C228        C229   1.410       .  A
C229        C230   1.412       .  A
C229        H232   1.086       .  S
C230        C233   1.441       .  S
C233        N235   1.157       .  T
C234       C1155   1.447       .  S
C234        N236   1.158       .  T
C237        C238   1.405       .  A
C237        C242   1.406   1_545  A
C238        C703   1.396       .  A
C238        H243   1.086       .  S
C239        C240   1.409   1_545  A
C239        C702   1.395   1_554  A
C239        C246   1.444       .  S
C240        C241   1.412       .  A
C241        C706   1.391   1_554  A
C241        H244   1.083       .  S
C242        C705   1.394       .  A
C242        C245   1.445       .  S
C245        N247   1.157       .  T
C246        N248   1.157       .  T
C249        C250   1.412       .  A
C249        C254   1.416       .  A
C250        C715   1.397       .  A
C250        H255   1.085       .  S
C251        C252   1.415       .  A
C251        C714   1.399   1_554  A
C251        C258   1.444       .  S
C252        C253   1.414       .  A
C253        C718   1.403   1_554  A
C253        H256   1.085       .  S
C254        C717   1.401       .  A
C254        C257   1.444       .  S
C257        N259   1.158       .  T
C258        N260   1.157       .  T
C261        C262   1.400       .  A
C261        C266   1.411       .  A
C262        C263   1.401       .  A
C262        H267   1.082       .  S
C263        C264   1.412       .  A
C263        C270   1.441       .  S
C264        C265   1.397       .  A
C265        C266   1.399       .  A
C265        H268   1.082       .  S
C266        C269   1.439       .  S
C269        N271   1.156       .  T
C270        N272   1.157       .  T
C273        C274   1.403       .  A
C273        C278   1.413       .  A
C274        C275   1.408       .  A
C274        H279   1.085       .  S
C275        C276   1.419       .  A
C275        C282   1.444       .  S
C276       C1080   1.488       .  S
C276        C277   1.405       .  A
C277        C278   1.399       .  A
C277        H280   1.086       .  S
C278        C281   1.445   1_545  S
C281        N283   1.157       .  T
C282        N284   1.157       .  T
C285        C286   1.411       .  A
C285        C290   1.420       .  A
C286        C287   1.417       .  A
C286        H291   1.082       .  S
C287        C288   1.415       .  A
C287        C294   1.441       .  S
C288        C289   1.402       .  A
C289        C290   1.391       .  A
C289        H292   1.084   1_565  S
C290        C293   1.446       .  S
C293        N295   1.157   1_565  T
C294        N296   1.157       .  T
C297        C298   1.413       .  A
C297        C302   1.412       .  A
C298        C299   1.398       .  A
C298        H303   1.080       .  S
C299        C300   1.411       .  A
C299        C306   1.445       .  S
C300        C301   1.412       .  A
C301        C302   1.400       .  A
C301        H304   1.080       .  S
C302        C305   1.445       .  S
C305        N307   1.157       .  T
C306        N308   1.157       .  T
C309        C310   1.401       .  A
C309        C314   1.417       .  A
C310        C311   1.400       .  A
C310        H315   1.083       .  S
C311        C312   1.419       .  A
C311        C318   1.445       .  S
C312        C313   1.401       .  A
C313        C314   1.400       .  A
C313        H316   1.083       .  S
C314        C317   1.445       .  S
C317        N319   1.157       .  T
C318        N320   1.157       .  T
C321        C322   1.406       .  A
C321        C326   1.415       .  A
C322        C787   1.396   1_554  A
C322        H327   1.083       .  S
C323        C324   1.413       .  A
C323        C786   1.400       .  A
C323        C330   1.445       .  S
C324        C325   1.402       .  A
C325        C790   1.406       .  A
C325        H328   1.083       .  S
C326        C789   1.400   1_554  A
C326        C329   1.443       .  S
C329        N331   1.157       .  T
C330        N332   1.157       .  T
C333        C334   1.413       .  A
C333        C338   1.412       .  A
C334        C335   1.401       .  A
C334        H339   1.084       .  S
C335        C336   1.407       .  A
C335        C342   1.443       .  S
C336        C337   1.412       .  A
C337        C338   1.403       .  A
C337        H340   1.083       .  S
C338        C341   1.445       .  S
C341        N343   1.158       .  T
C342        N344   1.157       .  T
C345        C346   1.407       .  A
C345        C350   1.411       .  A
C346        C347   1.403       .  A
C346        H351   1.081       .  S
C347        C348   1.411       .  A
C347        C354   1.444       .  S
C348        C349   1.407       .  A
C349        C350   1.401       .  A
C349        H352   1.082       .  S
C350        C353   1.445       .  S
C353        N355   1.157       .  T
C354        N356   1.157       .  T
C357        C358   1.400       .  A
C357       C1290   1.420       .  A
C358        C359   1.394   1_455  A
C358        H363   1.082       .  S
C359       C1288   1.421       .  A
C359        C366   1.446       .  S
C360        C361   1.402       .  A
C360       C1287   1.421       .  A
C361        C362   1.393       .  A
C361        H364   1.082       .  S
C362       C1285   1.419       .  A
C362        C365   1.446       .  S
C365        N367   1.158       .  T
C366        N368   1.157       .  T
C369        C370   1.408       .  A
C369        C374   1.412       .  A
C370        C371   1.401       .  A
C370        H375   1.086       .  S
C371        C372   1.409       .  A
C371        C378   1.445       .  S
C372        C373   1.409       .  A
C373        C374   1.409       .  A
C373        H376   1.086       .  S
C374        C377   1.443       .  S
C377        N379   1.157       .  T
C378        N380   1.157       .  T
C381        C970   1.487   1_455  S
C381        C382   1.402       .  A
C381        C386   1.417       .  A
C382        C383   1.401       .  A
C382        H387   1.086   1_455  S
C383        C384   1.418       .  A
C383        C390   1.446       .  S
C384        C385   1.403       .  A
C385        C386   1.409       .  A
C385        H388   1.085       .  S
C386        C389   1.443       .  S
C389       N1319   1.157       .  T
C390        N392   1.158       .  T
N391       C1317   1.157       .  T
C393        C394   1.401       .  A
C393        C398   1.420       .  A
C394        C395   1.403       .  A
C394        H399   1.083       .  S
C395        C396   1.422       .  A
C395        C402   1.445       .  S
C396        C397   1.403       .  A
C397        C398   1.405       .  A
C397        H400   1.083       .  S
C398        C401   1.445       .  S
C401        N403   1.157       .  T
C402        N404   1.157       .  T
C405        C406   1.406       .  A
C405        C410   1.410       .  A
C406        C407   1.396       .  A
C406        H411   1.083       .  S
C407        C408   1.409       .  A
C407        C414   1.444       .  S
C408        C409   1.406       .  A
C409        C410   1.397       .  A
C409        H412   1.083       .  S
C410        C413   1.445       .  S
C413        N415   1.157       .  T
C414        N416   1.157       .  T
C417        C418   1.417       .  A
C417        C422   1.413       .  A
C418        C419   1.402       .  A
C418        H423   1.086       .  S
C419        C420   1.404       .  A
C419        C426   1.444       .  S
C420        C421   1.407       .  A
C421        C422   1.399       .  A
C421        H424   1.086       .  S
C422        C425   1.444       .  S
C425        N427   1.157       .  T
C426        N428   1.157       .  T
C429        C430   1.401       .  A
C429        C434   1.412       .  A
C430        C895   1.401       .  A
C430        H435   1.085       .  S
C431        C432   1.419       .  A
C431        C894   1.398   1_554  A
C431        C438   1.446       .  S
C432        C433   1.407       .  A
C433        C898   1.404   1_554  A
C433        H436   1.084       .  S
C434        C897   1.405       .  A
C434        C437   1.444       .  S
C437        N439   1.157       .  T
C438        N440   1.157       .  T
C441       C1013   1.485       .  S
C441        C442   1.409       .  A
C441        C446   1.409       .  A
C442        C443   1.412       .  A
C442        H447   1.084       .  S
C443        C444   1.413       .  A
C443        C450   1.443       .  S
C444        C445   1.407       .  A
C445        C446   1.400       .  A
C445        H448   1.085       .  S
C446        C449   1.445       .  S
C449        N451   1.157       .  T
C450        N452   1.157       .  T
C453        C454   1.401       .  A
C453        C458   1.417       .  A
C454        C455   1.401       .  A
C454        H459   1.086       .  S
C455        C456   1.416       .  A
C455        C462   1.445       .  S
C456        C457   1.402       .  A
C457        C458   1.407       .  A
C457        H460   1.086       .  S
C458        C461   1.445       .  S
C461        N463   1.157       .  T
C462        N464   1.157       .  T
Fe465       O481   2.054       .  S
Fe465       O471   2.082       .  S
Fe465       O478   2.073       .  S
Fe465       O470   2.044       .  S
Fe465       O476   1.944       .  S
Fe466       O469   2.070       .  S
Fe466       O473   2.096       .  S
Fe466       O477   2.087       .  S
Fe466       O482   2.065       .  S
Fe466       O476   1.950       .  S
Fe467       O485   2.042       .  S
Fe467       O472   2.074       .  S
Fe467       O479   2.068       .  S
Fe467       O468   2.080       .  S
Fe467       O476   1.956       .  S
O468        C475   1.268       .  A
O469        C483   1.273       .  A
O470        C475   1.258       .  A
O471        C474   1.283       .  A
O472        C484   1.273       .  A
O473        C486   1.265       .  A
C474        O479   1.277       .  A
C474        C881   1.493       .  S
C475        C857   1.484       .  S
O477        C480   1.283       .  A
O478        C480   1.283       .  A
C480        C893   1.480       .  S
O481        C486   1.258       .  A
O482        C484   1.271       .  A
C483        O485   1.267       .  A
C483        C872   1.469       .  S
C484        C917   1.483       .  S
C486        C908   1.493       .  S
Fe487       O503   2.048       .  S
Fe487       O493   2.082       .  S
Fe487       O500   2.082       .  S
Fe487       O492   2.035       .  S
Fe487       O498   1.942       .  S
Fe488       O491   2.054       .  S
Fe488       O495   2.088       .  S
Fe488       O499   2.087       .  S
Fe488       O504   2.058       .  S
Fe488       O498   1.930       .  S
Fe489       O507   2.043       .  S
Fe489       O494   2.081       .  S
Fe489       O501   2.073       .  S
Fe489       O490   2.071       .  S
Fe489       O498   1.954       .  S
O490        C497   1.266       .  A
O491        C505   1.270       .  A
O492        C497   1.256       .  A
O493        C496   1.284       .  A
O494        C506   1.275       .  A
O495        C508   1.262       .  A
C496        O501   1.279       .  A
C496        C884   1.473       .  S
C497        C809   1.492       .  S
O499        C502   1.282       .  A
O500        C502   1.286       .  A
C502        C896   1.496       .  S
O503        C508   1.256       .  A
O504        C506   1.271       .  A
C505        O507   1.264       .  A
C505        C824   1.480       .  S
C506       C1773   1.481       .  S
C508        C833   1.487       .  S
Fe509       O525   2.075       .  S
Fe509       O515   2.040       .  S
Fe509       O522   2.049       .  S
Fe509       O514   2.081       .  S
Fe509       O520   1.943       .  S
Fe510       O513   2.053       .  S
Fe510       O517   2.094       .  S
Fe510       O521   2.085       .  S
Fe510       O526   2.069       .  S
Fe510       O520   1.947       .  S
Fe511       O529   2.084       .  S
Fe511       O516   2.045       .  S
Fe511       O523   2.081       .  S
Fe511       O512   2.071       .  S
Fe511       O520   1.956       .  S
O512        C519   1.276       .  A
O513        C527   1.268       .  A
O514        C519   1.282       .  A
O515        C518   1.257       .  A
O516        C528   1.268       .  A
O517        C530   1.285       .  A
C518        O523   1.270       .  A
C518        C776   1.486       .  S
C519        C797   1.494       .  S
O521        C524   1.262       .  A
O522        C524   1.257       .  A
C524        C848   1.485       .  S
O525        C530   1.283       .  A
O526        C528   1.274       .  A
C527        O529   1.273       .  A
C527        C836   1.483       .  S
C528        C869   1.470       .  S
C530        C785   1.494       .  S
Fe531       O547   2.077       .  S
Fe531       O537   2.025       .  S
Fe531       O544   2.031       .  S
Fe531       O536   2.080       .  S
Fe531       O542   1.951       .  S
Fe532       O535   2.069       .  S
Fe532       O539   2.064       .  S
Fe532       O543   2.086       .  S
Fe532       O548   2.051       .  S
Fe532       O542   1.954       .  S
Fe533       O551   2.076       .  S
Fe533       O538   2.049       .  S
Fe533       O545   2.082       .  S
Fe533       O534   2.061       .  S
Fe533       O542   1.968       .  S
O534        C541   1.275       .  A
O535        C549   1.271       .  A
O536        C541   1.282       .  A
O537        C540   1.255       .  A
O538        C550   1.266       .  A
O539        C552   1.279       .  A
C540        O545   1.267       .  A
C540        C761   1.494       .  S
C541        C800   1.469       .  S
O543        C546   1.263       .  A
O544        C546   1.254       .  A
C546        C920   1.481       .  S
O547        C552   1.284       .  A
O548        C550   1.269       .  A
C549        O551   1.273       .  A
C549       C1833   1.483   1_455  S
C550        C821   1.477       .  S
C552        C788   1.472       .  S
Fe553       O569   2.067       .  S
Fe553       O559   2.019       .  S
Fe553       O566   2.035       .  S
Fe553       O558   2.068       .  S
Fe553       O564   1.953       .  S
Fe554       O557   2.050       .  S
Fe554       O561   2.084       .  S
Fe554       O565   2.083   1_565  S
Fe554       O570   2.073       .  S
Fe554       O564   1.950       .  S
Fe555       O573   2.089       .  S
Fe555       O560   2.040       .  S
Fe555       O567   2.081       .  S
Fe555       O556   2.078       .  S
Fe555       O564   1.964       .  S
O556        C563   1.278       .  A
O557        C571   1.264       .  A
O558        C563   1.280       .  A
O559        C562   1.254       .  A
O560        C572   1.268       .  A
O561        C574   1.285       .  A
C562        O567   1.268       .  A
C562        C812   1.491       .  S
C563        C716   1.480       .  S
O565        C568   1.261       .  A
O566        C568   1.254   1_565  A
C568        C737   1.483       .  S
O569        C574   1.280       .  A
O570        C572   1.277       .  A
C571        O573   1.272       .  A
C571        C749   1.491       .  S
C572        C704   1.460       .  S
C574        C725   1.470       .  S
Fe575       O591   2.071       .  S
Fe575       O581   2.037       .  S
Fe575       O588   2.046       .  S
Fe575       O580   2.078       .  S
Fe575       O586   1.957       .  S
Fe576       O579   2.042       .  S
Fe576       O583   2.082       .  S
Fe576       O587   2.077   1_565  S
Fe576       O592   2.075       .  S
Fe576       O586   1.957       .  S
Fe577       O595   2.098       .  S
Fe577       O582   2.038       .  S
Fe577       O589   2.080       .  S
Fe577       O578   2.074       .  S
Fe577       O586   1.962       .  S
O578        C585   1.278       .  A
O579        C593   1.262       .  A
O580        C585   1.281       .  A
O581        C584   1.258       .  A
O582        C594   1.268       .  A
O583        C596   1.284       .  A
C584        O589   1.268       .  A
C584        C860   1.484       .  S
C585        C713   1.483       .  S
O587        C590   1.260   1_545  A
O588        C590   1.257       .  A
C590        C677   1.484   1_565  S
O591        C596   1.281       .  A
O592        C594   1.276       .  A
C593        O595   1.274       .  A
C593       C1620   1.492       .  S
C594        C665   1.483       .  S
C596        C728   1.470       .  S
Fe597       O613   2.045       .  S
Fe597       O603   2.082       .  S
Fe597       O610   2.079       .  S
Fe597       O602   2.042       .  S
Fe597       O608   1.944       .  S
Fe598       O601   2.079       .  S
Fe598       O605   2.092   1_545  S
Fe598       O609   2.084       .  S
Fe598       O614   2.058       .  S
Fe598       O608   1.957       .  S
Fe599       O617   2.051       .  S
Fe599       O604   2.074       .  S
Fe599       O611   2.068       .  S
Fe599       O600   2.078       .  S
Fe599       O608   1.958       .  S
O600        C607   1.267       .  A
O601        C615   1.273       .  A
O602        C607   1.257       .  A
O603        C606   1.284       .  A
O604        C616   1.272       .  A
O605        C618   1.265   1_565  A
C606        O611   1.275       .  A
C606        C653   1.493       .  S
C607        C773   1.487       .  S
O609        C612   1.281       .  A
O610        C612   1.282       .  A
C612        C641   1.479       .  S
O613        C618   1.259       .  A
O614        C616   1.270       .  A
C615        O617   1.267       .  A
C615        C668   1.477       .  S
C616       C1668   1.483   1_455  S
C618        C752   1.492   1_545  S
Fe619       O635   2.035       .  S
Fe619       O625   2.076       .  S
Fe619       O632   2.078       .  S
Fe619       O624   2.026       .  S
Fe619       O630   1.947       .  S
Fe620       O623   2.054       .  S
Fe620       O627   2.093   1_545  S
Fe620       O631   2.074       .  S
Fe620       O636   2.058       .  S
Fe620       O630   1.957       .  S
Fe621       O639   2.044       .  S
Fe621       O626   2.078       .  S
Fe621       O633   2.081       .  S
Fe621       O622   2.081       .  S
Fe621       O630   1.963       .  S
O622        C629   1.267       .  A
O623        C637   1.271       .  A
O624        C629   1.255       .  A
O625        C628   1.283       .  A
O626        C638   1.273       .  A
O627        C640   1.263   1_565  A
C628        O633   1.278       .  A
C628        C656   1.490       .  S
C629        C764   1.490       .  S
O631        C634   1.281       .  A
O632        C634   1.282       .  A
C634        C644   1.493       .  S
O635        C640   1.257       .  A
O636        C638   1.269       .  A
C637        O639   1.268       .  A
C637        C701   1.480       .  S
C638        C680   1.486       .  S
C640        C689   1.488   1_545  S
C641        C642   1.404       .  A
C641        C646   1.409       .  A
C642        C643   1.407       .  A
C642        H647   1.085       .  S
C643        C644   1.419       .  A
C643        C650   1.444       .  S
C644        C645   1.408       .  A
C645        C646   1.395       .  A
C645        H648   1.085       .  S
C646        C649   1.445   1_545  S
C649        N651   1.157       .  T
C650        N652   1.158       .  T
C653        C654   1.402       .  A
C653        C658   1.425       .  A
C654        H659   1.084       .  S
C655        C656   1.420   1_554  A
C655        C662   1.442       .  S
C656        C657   1.400       .  A
C657        H660   1.084       .  S
C658        C661   1.445       .  S
C661        N663   1.158       .  T
C662        N664   1.156       .  T
C665        C666   1.412       .  A
C665       C1598   1.410   1_565  A
C666        H671   1.086       .  S
C667       C1596   1.409   1_565  A
C667        C674   1.444       .  S
C668       C1595   1.410   1_445  A
C668        C669   1.405       .  A
C669        H672   1.082       .  S
C670       C1593   1.412   1_545  A
C670        C673   1.445       .  S
C673        N675   1.158       .  T
C674        N676   1.157       .  T
C677        C678   1.403       .  A
C677        C682   1.413       .  A
C678        C679   1.408       .  A
C678        H683   1.085       .  S
C679        C680   1.418       .  A
C679        C686   1.444       .  S
C680        C681   1.404       .  A
C681        C682   1.400       .  A
C681        H684   1.085       .  S
C682        C685   1.445   1_545  S
C685        N687   1.157       .  T
C686        N688   1.157       .  T
C689        C690   1.401       .  A
C689        C694   1.413       .  A
C690        C691   1.393       .  A
C690        H695   1.088       .  S
C691        C692   1.418       .  A
C691       C1626   1.445   1_455  S
C692       C1521   1.491   1_455  S
C692        C693   1.411       .  A
C693        C694   1.415       .  A
C693        H696   1.086       .  S
C694        C697   1.442       .  S
C697        N699   1.157       .  T
C698       C1619   1.445       .  S
C698        N700   1.157       .  T
C701        C702   1.410       .  A
C701        C706   1.410   1_545  A
C702        H707   1.083       .  S
C703        C704   1.405   1_545  A
C703        C710   1.444       .  S
C704        C705   1.405       .  A
C705        H708   1.086       .  S
C706        C709   1.446       .  S
C709        N711   1.158       .  T
C710        N712   1.157       .  T
C713        C714   1.407       .  A
C713        C718   1.408       .  A
C714        H719   1.087       .  S
C715        C716   1.407       .  A
C715        C722   1.444       .  S
C716        C717   1.407       .  A
C717        H720   1.086       .  S
C718        C721   1.444       .  S
C721        N723   1.157       .  T
C722        N724   1.157       .  T
C725        C726   1.399       .  A
C725        C730   1.410       .  A
C726        C727   1.399       .  A
C726        H731   1.085       .  S
C727        C728   1.411       .  A
C727        C734   1.441       .  S
C728        C729   1.397       .  A
C729        C730   1.396       .  A
C729        H732   1.085       .  S
C730        C733   1.440       .  S
C733        N735   1.156       .  T
C734        N736   1.157       .  T
C737        C738   1.402       .  A
C737        C742   1.414       .  A
C738        C739   1.407       .  A
C738        H743   1.087       .  S
C739        C740   1.418       .  A
C739        C746   1.443       .  S
C740       C1544   1.487       .  S
C740        C741   1.404       .  A
C741        C742   1.399       .  A
C741        H744   1.087       .  S
C742        C745   1.445       .  S
C745        N747   1.157   1_545  T
C746        N748   1.157       .  T
C749        C750   1.411       .  A
C749        C754   1.416       .  A
C750        C751   1.413       .  A
C750        H755   1.083       .  S
C751        C752   1.412       .  A
C751        C758   1.442       .  S
C752        C753   1.404       .  A
C753        C754   1.396       .  A
C753        H756   1.084   1_565  S
C754        C757   1.445       .  S
C757        N759   1.157       .  T
C758        N760   1.157       .  T
C761        C762   1.415       .  A
C761        C766   1.411       .  A
C762        C763   1.402       .  A
C762        H767   1.081       .  S
C763        C764   1.409       .  A
C763        C770   1.444       .  S
C764        C765   1.412       .  A
C765        C766   1.401       .  A
C765        H768   1.081       .  S
C766        C769   1.444       .  S
C769        N771   1.157       .  T
C770        N772   1.157       .  T
C773        C774   1.402       .  A
C773        C778   1.417       .  A
C774        C775   1.403       .  A
C774        H779   1.083       .  S
C775        C776   1.421       .  A
C775        C782   1.446       .  S
C776        C777   1.401       .  A
C777        C778   1.402       .  A
C777        H780   1.083       .  S
C778        C781   1.444       .  S
C781        N783   1.157       .  T
C782        N784   1.158       .  T
C785        C786   1.407       .  A
C785        C790   1.419       .  A
C786        H791   1.083       .  S
C787        C788   1.413       .  A
C787        C794   1.446       .  S
C788        C789   1.401       .  A
C789        H792   1.083       .  S
C790        C793   1.443       .  S
C793        N795   1.157       .  T
C794        N796   1.158       .  T
C797        C798   1.418       .  A
C797        C802   1.416       .  A
C798        C799   1.400       .  A
C798        H803   1.084       .  S
C799        C800   1.401       .  A
C799        C806   1.444       .  S
C800        C801   1.403       .  A
C801        C802   1.399       .  A
C801        H804   1.085       .  S
C802        C805   1.444       .  S
C805        N807   1.157       .  T
C806        N808   1.157       .  T
C809        C810   1.416       .  A
C809        C814   1.409       .  A
C810        C811   1.400       .  A
C810        H815   1.080       .  S
C811        C812   1.408       .  A
C811        C818   1.444       .  S
C812        C813   1.416       .  A
C813        C814   1.398       .  A
C813        H816   1.081       .  S
C814        C817   1.445       .  S
C817        N819   1.157       .  T
C818        N820   1.157       .  T
C821        C822   1.402       .  A
C821       C1754   1.417       .  A
C822        C823   1.395   1_455  A
C822        H827   1.082       .  S
C823       C1752   1.419       .  A
C823        C830   1.445       .  S
C824       C1751   1.419       .  A
C824        C825   1.403       .  A
C825        C826   1.391       .  A
C825        H828   1.082       .  S
C826       C1749   1.416       .  A
C826        C829   1.446       .  S
C829        N831   1.157       .  T
C830        N832   1.157       .  T
C833        C834   1.407       .  A
C833        C838   1.412       .  A
C834        C835   1.399       .  A
C834        H839   1.086       .  S
C835        C836   1.410       .  A
C835        C842   1.445       .  S
C836        C837   1.408       .  A
C837        C838   1.408       .  A
C837        H840   1.086       .  S
C838        C841   1.444       .  S
C841        N843   1.157       .  T
C842        N844   1.157       .  T
C845       C1434   1.479   1_455  S
C845        C846   1.400       .  A
C845        C850   1.416       .  A
C846        C847   1.399       .  A
C846        H851   1.086   1_455  S
C847        C848   1.414       .  A
C847        C854   1.444       .  S
C848        C849   1.405       .  A
C849        C850   1.408       .  A
C849        H852   1.085       .  S
C850        C853   1.445       .  S
C853       N1783   1.158       .  T
C854        N856   1.157       .  T
N855       C1781   1.158       .  T
C857        C858   1.403       .  A
C857        C862   1.416       .  A
C858        C859   1.404       .  A
C858        H863   1.083       .  S
C859        C860   1.416       .  A
C859        C866   1.445       .  S
C860        C861   1.402       .  A
C861        C862   1.403       .  A
C861        H864   1.083       .  S
C862        C865   1.444       .  S
C865        N867   1.157       .  T
C866        N868   1.157       .  T
C869        C870   1.406       .  A
C869        C874   1.409       .  A
C870        C871   1.398       .  A
C870        H875   1.085       .  S
C871        C872   1.410       .  A
C871        C878   1.445       .  S
C872        C873   1.404       .  A
C873        C874   1.394       .  A
C873        H876   1.085       .  S
C874        C877   1.444       .  S
C877        N879   1.157       .  T
C878        N880   1.157       .  T
C881        C882   1.418       .  A
C881        C886   1.414       .  A
C882        C883   1.400       .  A
C882        H887   1.085       .  S
C883        C884   1.401       .  A
C883        C890   1.443       .  S
C884        C885   1.405       .  A
C885        C886   1.399       .  A
C885        H888   1.086       .  S
C886        C889   1.444       .  S
C889        N891   1.158       .  T
C890        N892   1.157       .  T
C893        C894   1.401       .  A
C893        C898   1.412       .  A
C894        H899   1.085       .  S
C895        C896   1.423       .  A
C895        C902   1.446       .  S
C896        C897   1.408       .  A
C897        H900   1.084       .  S
C898        C901   1.444       .  S
C901        N903   1.157       .  T
C902        N904   1.158       .  T
C905       C1477   1.485       .  S
C905        C906   1.409       .  A
C905        C910   1.409       .  A
C906        C907   1.411       .  A
C906        H911   1.084       .  S
C907        C908   1.413       .  A
C907        C914   1.443       .  S
C908        C909   1.408       .  A
C909        C910   1.403       .  A
C909        H912   1.085       .  S
C910        C913   1.445       .  S
C913        N915   1.157       .  T
C914        N916   1.157       .  T
C917        C918   1.402       .  A
C917        C922   1.418       .  A
C918        C919   1.400       .  A
C918        H923   1.085       .  S
C919        C920   1.415       .  A
C919        C926   1.446       .  S
C920        C921   1.401       .  A
C921        C922   1.406       .  A
C921        H924   1.085       .  S
C922        C925   1.444       .  S
C925        N927   1.157       .  T
C926        N928   1.157       .  T
Fe929       O945   2.048       .  S
Fe929       O935   2.085       .  S
Fe929       O942   2.080       .  S
Fe929       O934   2.049       .  S
Fe929       O940   1.944       .  S
Fe930       O933   2.067       .  S
Fe930       O937   2.086       .  S
Fe930       O941   2.089       .  S
Fe930       O946   2.061       .  S
Fe930       O940   1.952       .  S
Fe931       O949   2.040       .  S
Fe931       O936   2.078       .  S
Fe931       O943   2.072       .  S
Fe931       O932   2.078       .  S
Fe931       O940   1.960       .  S
O932        C939   1.268       .  A
O933        C947   1.274       .  A
O934        C939   1.259       .  A
O935        C938   1.282       .  A
O936        C948   1.271       .  A
O937        C950   1.262       .  A
C938        O943   1.276       .  A
C938       C1345   1.497       .  S
C939       C1321   1.490       .  S
O941        C944   1.284       .  A
O942        C944   1.285       .  A
C944       C1357   1.482       .  S
O945        C950   1.257       .  A
O946        C948   1.268       .  A
C947        O949   1.268       .  A
C947       C1336   1.472       .  S
C948       C1381   1.483       .  S
C950       C1372   1.488       .  S
Fe951       O967   2.049       .  S
Fe951       O957   2.082       .  S
Fe951       O964   2.079       .  S
Fe951       O956   2.041       .  S
Fe951       O962   1.945       .  S
Fe952       O955   2.060       .  S
Fe952       O959   2.098       .  S
Fe952       O963   2.081       .  S
Fe952       O968   2.071       .  S
Fe952       O962   1.940       .  S
Fe953       O971   2.038       .  S
Fe953       O958   2.081       .  S
Fe953       O965   2.074       .  S
Fe953       O954   2.077       .  S
Fe953       O962   1.959       .  S
O954        C961   1.266       .  A
O955        C969   1.272       .  A
O956        C961   1.257       .  A
O957        C960   1.284       .  A
O958        C970   1.274       .  A
O959        C972   1.265       .  A
C960        O965   1.280       .  A
C960       C1348   1.480       .  S
C961       C1273   1.496       .  S
O963        C966   1.283       .  A
O964        C966   1.286       .  A
C966       C1360   1.488       .  S
O967        C972   1.256       .  A
O968        C970   1.273       .  A
C969        O971   1.263       .  A
C969       C1288   1.480       .  S
C972       C1297   1.494       .  S
Fe973       O989   2.064       .  S
Fe973       O979   2.041       .  S
Fe973       O986   2.045       .  S
Fe973       O978   2.074       .  S
Fe973       O984   1.948       .  S
Fe974       O977   2.068       .  S
Fe974       O981   2.086       .  S
Fe974       O985   2.096       .  S
Fe974       O990   2.072       .  S
Fe974       O984   1.948       .  S
Fe975       O993   2.088       .  S
Fe975       O980   2.032       .  S
Fe975       O987   2.071       .  S
Fe975       O976   2.083       .  S
Fe975       O984   1.956       .  S
O976        C983   1.279       .  A
O977        C991   1.270       .  A
O978        C983   1.280       .  A
O979        C982   1.257       .  A
O980        C992   1.266       .  A
O981        C994   1.283       .  A
C982        O987   1.267       .  A
C982       C1240   1.478       .  S
C983       C1261   1.492       .  S
O985        C988   1.265       .  A
O986        C988   1.257       .  A
C988       C1312   1.491       .  S
O989        C994   1.280       .  A
O990        C992   1.275       .  A
C991        O993   1.273       .  A
C991       C1300   1.492       .  S
C992       C1333   1.473       .  S
C994       C1249   1.478       .  S
Fe995      O1011   2.092       .  S
Fe995      O1001   2.026       .  S
Fe995      O1008   2.039       .  S
Fe995      O1000   2.090       .  S
Fe995      O1006   1.946       .  S
Fe996       O999   2.068       .  S
Fe996      O1003   2.071       .  S
Fe996      O1007   2.089       .  S
Fe996      O1012   2.051       .  S
Fe996      O1006   1.945       .  S
Fe997      O1015   2.080       .  S
Fe997      O1002   2.040       .  S
Fe997      O1009   2.072       .  S
Fe997       O998   2.072       .  S
Fe997      O1006   1.966       .  S
O998       C1005   1.279       .  A
O999       C1013   1.272       .  A
O1000      C1005   1.286       .  A
O1001      C1004   1.255       .  A
O1002      C1014   1.263       .  A
O1003      C1016   1.280       .  A
C1004      O1009   1.265       .  A
C1004      C1225   1.491       .  S
C1005      C1264   1.488       .  S
O1007      C1010   1.263       .  A
O1008      C1010   1.254       .  A
C1010      C1384   1.484       .  S
O1011      C1016   1.287       .  A
O1012      C1014   1.270       .  A
C1013      O1015   1.274       .  A
C1014      C1285   1.476       .  S
C1016      C1252   1.484       .  S
Fe1017     O1033   2.062       .  S
Fe1017     O1023   2.034       .  S
Fe1017     O1030   2.045       .  S
Fe1017     O1022   2.068       .  S
Fe1017     O1028   1.946       .  S
Fe1018     O1021   2.034       .  S
Fe1018     O1025   2.098       .  S
Fe1018     O1029   2.069   1_565  S
Fe1018     O1034   2.074       .  S
Fe1018     O1028   1.945       .  S
Fe1019     O1037   2.102       .  S
Fe1019     O1024   2.032       .  S
Fe1019     O1031   2.084       .  S
Fe1019     O1020   2.082       .  S
Fe1019     O1028   1.957       .  S
O1020      C1027   1.278       .  A
O1021      C1035   1.261       .  A
O1022      C1027   1.280       .  A
O1023      C1026   1.258       .  A
O1024      C1036   1.268       .  A
O1025      C1038   1.288       .  A
C1026      O1031   1.270       .  A
C1026      C1276   1.493       .  S
C1027      C1180   1.484       .  S
O1029      C1032   1.258   1_545  A
O1030      C1032   1.256       .  A
C1032      C1201   1.480   1_565  S
O1033      C1038   1.281       .  A
O1034      C1036   1.276       .  A
C1035      O1037   1.275       .  A
C1035      C1213   1.491       .  S
C1036      C1168   1.482       .  S
C1038      C1189   1.473       .  S
Fe1039     O1055   2.069       .  S
Fe1039     O1045   2.038       .  S
Fe1039     O1052   2.035       .  S
Fe1039     O1044   2.066       .  S
Fe1039     O1050   1.951       .  S
Fe1040     O1043   2.036       .  S
Fe1040     O1047   2.095       .  S
Fe1040     O1051   2.080   1_565  S
Fe1040     O1056   2.083       .  S
Fe1040     O1050   1.953       .  S
Fe1041     O1059   2.095       .  S
Fe1041     O1046   2.054       .  S
Fe1041     O1053   2.086       .  S
Fe1041     O1042   2.078       .  S
Fe1041     O1050   1.961       .  S
O1042      C1049   1.279       .  A
O1043      C1057   1.263       .  A
O1044      C1049   1.279       .  A
O1045      C1048   1.257       .  A
O1046      C1058   1.269       .  A
O1047      C1060   1.285       .  A
C1048      O1053   1.270       .  A
C1048      C1324   1.492       .  S
C1049      C1177   1.490       .  S
O1051      C1054   1.262   1_545  A
O1052      C1054   1.255       .  A
C1054      C1141   1.484   1_565  S
O1055      C1060   1.280       .  A
O1056      C1058   1.277       .  A
C1057      O1059   1.274       .  A
C1058      C1129   1.477       .  S
C1060      C1192   1.475       .  S
Fe1061     O1077   2.047       .  S
Fe1061     O1067   2.076       .  S
Fe1061     O1074   2.077       .  S
Fe1061     O1066   2.038       .  S
Fe1061     O1072   1.943       .  S
Fe1062     O1065   2.069       .  S
Fe1062     O1069   2.088   1_545  S
Fe1062     O1073   2.096       .  S
Fe1062     O1078   2.051       .  S
Fe1062     O1072   1.945       .  S
Fe1063     O1081   2.031       .  S
Fe1063     O1068   2.086       .  S
Fe1063     O1075   2.085       .  S
Fe1063     O1064   2.071       .  S
Fe1063     O1072   1.954       .  S
O1064      C1071   1.266       .  A
O1065      C1079   1.272       .  A
O1066      C1071   1.257       .  A
O1067      C1070   1.282       .  A
O1068      C1080   1.276       .  A
O1069      C1082   1.263   1_565  A
C1070      O1075   1.279       .  A
C1070      C1117   1.489       .  S
C1071      C1237   1.479       .  S
O1073      C1076   1.283       .  A
O1074      C1076   1.281       .  A
C1076      C1105   1.487       .  S
O1077      C1082   1.259       .  A
O1078      C1080   1.270       .  A
C1079      O1081   1.264       .  A
C1079      C1132   1.478       .  S
C1082      C1216   1.488   1_545  S
Fe1083     O1099   2.030       .  S
Fe1083     O1089   2.082       .  S
Fe1083     O1096   2.083       .  S
Fe1083     O1088   2.021       .  S
Fe1083     O1094   1.938       .  S
Fe1084     O1087   2.072       .  S
Fe1084     O1091   2.094   1_545  S
Fe1084     O1095   2.093       .  S
Fe1084     O1100   2.053       .  S
Fe1084     O1094   1.949       .  S
Fe1085     O1103   2.038       .  S
Fe1085     O1090   2.072       .  S
Fe1085     O1097   2.081       .  S
Fe1085     O1086   2.071       .  S
Fe1085     O1094   1.959       .  S
O1086      C1093   1.263       .  A
O1087      C1101   1.275       .  A
O1088      C1093   1.253       .  A
O1089      C1092   1.285       .  A
O1090      C1102   1.269       .  A
O1091      C1104   1.262       .  A
C1092      O1097   1.279       .  A
C1092      C1120   1.487       .  S
C1093      C1228   1.485       .  S
O1095      C1098   1.286       .  A
O1096      C1098   1.285       .  A
C1098      C1108   1.498       .  S
O1099      C1104   1.256   1_545  A
O1100      C1102   1.268       .  A
C1101      O1103   1.265       .  A
C1101      C1165   1.461       .  S
C1102      C1144   1.480       .  S
C1104      C1153   1.491       .  S
C1105      C1106   1.405       .  A
C1105      C1110   1.411       .  A
C1106      C1107   1.409       .  A
C1106      H1111   1.085       .  S
C1107      C1108   1.421       .  A
C1107      C1114   1.445       .  S
C1108      C1109   1.408       .  A
C1109      C1110   1.400       .  A
C1109      H1112   1.085   1_545  S
C1110      C1113   1.445   1_545  S
C1113      N1115   1.157       .  T
C1114      N1116   1.158       .  T
C1117      C1118   1.401       .  A
C1117      C1122   1.419       .  A
C1118      C1583   1.402       .  A
C1118      H1123   1.084       .  S
C1119      C1582   1.400       .  A
C1119      C1120   1.420       .  A
C1119      C1126   1.444       .  S
C1120      C1121   1.400       .  A
C1121      C1586   1.402       .  A
C1121      H1124   1.084       .  S
C1122      C1585   1.398   1_554  A
C1122      C1125   1.442       .  S
C1125      N1127   1.156       .  T
C1126      N1128   1.157       .  T
C1129      C1130   1.408       .  A
C1130      C1595   1.402       .  A
C1130      H1135   1.085       .  S
C1131      C1594   1.393   1_554  A
C1131      C1138   1.443       .  S
C1132      C1133   1.410       .  A
C1133      C1598   1.397   1_554  A
C1133      H1136   1.086       .  S
C1134      C1597   1.396       .  A
C1134      C1137   1.444       .  S
C1137      N1139   1.157       .  T
C1138      N1140   1.157       .  T
C1141      C1142   1.405       .  A
C1141      C1146   1.416       .  A
C1142      C1143   1.408       .  A
C1142      H1147   1.085       .  S
C1143      C1144   1.415       .  A
C1143      C1150   1.444       .  S
C1144      C1145   1.401       .  A
C1145      C1146   1.395       .  A
C1145      H1148   1.086       .  S
C1146      C1149   1.446   1_545  S
C1149      N1151   1.157       .  T
C1150      N1152   1.157       .  T
C1153      C1154   1.402       .  A
C1153      C1158   1.413       .  A
C1154      C1155   1.392       .  A
C1154      H1159   1.088       .  S
C1155      C1156   1.419       .  A
C1156      C1157   1.409       .  A
C1157      C1158   1.414       .  A
C1157      H1160   1.086       .  S
C1158      C1161   1.441       .  S
C1161      N1163   1.157       .  T
C1162      N1164   1.158       .  T
C1165      C1166   1.406       .  A
C1165      C1170   1.406   1_545  A
C1166      C1631   1.396       .  A
C1166      H1171   1.086       .  S
C1167      C1630   1.395   1_554  A
C1167      C1168   1.409   1_545  A
C1167      C1174   1.444       .  S
C1168      C1169   1.411       .  A
C1169      C1634   1.392   1_554  A
C1169      H1172   1.085       .  S
C1170      C1633   1.395       .  A
C1170      C1173   1.444       .  S
C1173      N1175   1.157       .  T
C1174      N1176   1.157       .  T
C1177      C1178   1.412       .  A
C1177      C1182   1.415       .  A
C1178      C1643   1.398       .  A
C1178      H1183   1.085       .  S
C1179      C1642   1.400   1_554  A
C1179      C1180   1.408       .  A
C1179      C1186   1.444       .  S
C1180      C1181   1.409       .  A
C1181      C1646   1.401   1_554  A
C1181      H1184   1.086       .  S
C1182      C1645   1.400       .  A
C1182      C1185   1.444       .  S
C1185      N1187   1.158       .  T
C1186      N1188   1.157       .  T
C1189      C1190   1.398       .  A
C1189      C1194   1.411       .  A
C1190      C1191   1.399       .  A
C1190      H1195   1.082       .  S
C1191      C1192   1.410       .  A
C1191      C1198   1.440       .  S
C1192      C1193   1.400       .  A
C1193      C1194   1.402       .  A
C1193      H1196   1.082       .  S
C1194      C1197   1.441       .  S
C1197      N1199   1.157       .  T
C1198      N1200   1.156       .  T
C1201      C1202   1.403       .  A
C1201      C1206   1.413       .  A
C1202      C1203   1.405       .  A
C1202      H1207   1.085       .  S
C1203      C1204   1.417       .  A
C1203      C1210   1.445       .  S
C1204      C1205   1.403       .  A
C1205      C1206   1.398       .  A
C1205      H1208   1.086   1_655  S
C1206      C1209   1.445       .  S
C1209      N1211   1.157   1_545  T
C1210      N1212   1.157       .  T
C1213      C1214   1.411       .  A
C1213      C1218   1.418       .  A
C1214      C1215   1.414       .  A
C1214      H1219   1.082       .  S
C1215      C1216   1.413       .  A
C1215      C1222   1.442       .  S
C1216      C1217   1.401       .  A
C1217      C1218   1.393       .  A
C1217      H1220   1.084       .  S
C1218      C1221   1.444       .  S
C1221      N1223   1.157       .  T
C1222      N1224   1.157       .  T
C1225      C1226   1.415       .  A
C1225      C1230   1.411       .  A
C1226      C1227   1.400       .  A
C1226      H1231   1.080       .  S
C1227      C1228   1.408       .  A
C1227      C1234   1.445       .  S
C1228      C1229   1.411       .  A
C1229      C1230   1.398       .  A
C1229      H1232   1.081       .  S
C1230      C1233   1.444       .  S
C1233      N1235   1.157       .  T
C1234      N1236   1.157       .  T
C1237      C1238   1.402       .  A
C1237      C1242   1.415       .  A
C1238      C1239   1.401       .  A
C1238      H1243   1.082       .  S
C1239      C1240   1.417       .  A
C1239      C1246   1.445       .  S
C1240      C1241   1.401       .  A
C1241      C1242   1.399       .  A
C1241      H1244   1.083       .  S
C1242      C1245   1.445       .  S
C1245      N1247   1.157       .  T
C1246      N1248   1.157       .  T
C1249      C1250   1.401       .  A
C1249      C1254   1.414       .  A
C1250      C1715   1.395   1_554  A
C1250      H1255   1.084       .  S
C1251      C1714   1.399       .  A
C1251      C1252   1.414       .  A
C1251      C1258   1.446       .  S
C1252      C1253   1.402       .  A
C1253      C1718   1.405       .  A
C1253      H1256   1.083       .  S
C1254      C1717   1.402   1_554  A
C1254      C1257   1.443       .  S
C1257      N1259   1.157       .  T
C1258      N1260   1.157       .  T
C1261      C1262   1.413       .  A
C1261      C1266   1.413       .  A
C1262      C1263   1.402       .  A
C1262      H1267   1.085       .  S
C1263      C1264   1.407       .  A
C1263      C1270   1.443       .  S
C1264      C1265   1.410       .  A
C1265      C1266   1.401       .  A
C1265      H1268   1.083       .  S
C1266      C1269   1.445       .  S
C1269      N1271   1.158       .  T
C1270      N1272   1.157       .  T
C1273      C1274   1.415       .  A
C1273      C1278   1.411       .  A
C1274      C1275   1.404       .  A
C1274      H1279   1.081       .  S
C1275      C1276   1.410       .  A
C1275      C1282   1.444       .  S
C1276      C1277   1.413       .  A
C1277      C1278   1.401       .  A
C1277      H1280   1.081       .  S
C1278      C1281   1.444       .  S
C1281      N1283   1.157       .  T
C1282      N1284   1.157       .  T
C1285      C1286   1.400       .  A
C1286      C1287   1.391       .  A
C1286      H1291   1.082       .  S
C1287      C1294   1.446       .  S
C1288      C1289   1.401       .  A
C1289      C1290   1.392   1_655  A
C1289      H1292   1.082       .  S
C1290      C1293   1.446       .  S
C1293      N1295   1.158       .  T
C1294      N1296   1.157       .  T
C1297      C1298   1.408       .  A
C1297      C1302   1.413       .  A
C1298      C1299   1.403       .  A
C1298      H1303   1.086       .  S
C1299      C1300   1.410       .  A
C1299      C1306   1.445       .  S
C1300      C1301   1.410       .  A
C1301      C1302   1.412       .  A
C1301      H1304   1.085       .  S
C1302      C1305   1.443       .  S
C1305      N1307   1.157       .  T
C1306      N1308   1.157       .  T
C1309      C1310   1.402       .  A
C1309      C1314   1.418       .  A
C1310      C1311   1.400       .  A
C1310      H1315   1.086       .  S
C1311      C1312   1.416       .  A
C1311      C1318   1.446       .  S
C1312      C1313   1.405       .  A
C1313      C1314   1.412       .  A
C1313      H1316   1.085       .  S
C1314      C1317   1.443       .  S
C1318      N1320   1.157       .  T
C1321      C1322   1.401       .  A
C1321      C1326   1.420       .  A
C1322      C1323   1.402       .  A
C1322      H1327   1.083       .  S
C1323      C1324   1.422       .  A
C1323      C1330   1.445       .  S
C1324      C1325   1.403       .  A
C1325      C1326   1.404       .  A
C1325      H1328   1.083       .  S
C1326      C1329   1.445       .  S
C1329      N1331   1.157       .  T
C1330      N1332   1.157       .  T
C1333      C1334   1.408       .  A
C1333      C1338   1.410       .  A
C1334      C1335   1.394       .  A
C1334      H1339   1.085       .  S
C1335      C1336   1.409       .  A
C1335      C1342   1.444       .  S
C1336      C1337   1.407       .  A
C1337      C1338   1.395       .  A
C1337      H1340   1.085       .  S
C1338      C1341   1.444       .  S
C1341      N1343   1.157       .  T
C1342      N1344   1.157       .  T
C1345      C1346   1.418       .  A
C1345      C1350   1.414       .  A
C1346      C1347   1.403       .  A
C1346      H1351   1.083       .  S
C1347      C1348   1.403       .  A
C1347      C1354   1.444       .  S
C1348      C1349   1.406       .  A
C1349      C1350   1.401       .  A
C1349      H1352   1.079       .  S
C1350      C1353   1.444       .  S
C1353      N1355   1.157       .  T
C1354      N1356   1.157       .  T
C1357      C1358   1.401       .  A
C1357      C1362   1.412       .  A
C1358      C1823   1.400       .  A
C1358      H1363   1.085       .  S
C1359      C1822   1.397   1_554  A
C1359      C1360   1.418       .  A
C1359      C1366   1.446       .  S
C1360      C1361   1.407       .  A
C1361      C1826   1.404   1_554  A
C1361      H1364   1.084       .  S
C1362      C1825   1.405       .  A
C1362      C1365   1.444       .  S
C1365      N1367   1.157       .  T
C1366      N1368   1.157       .  T
C1369      C1370   1.408       .  A
C1369      C1374   1.408       .  A
C1370      C1371   1.409       .  A
C1370      H1375   1.085       .  S
C1371      C1372   1.412       .  A
C1371      C1378   1.443       .  S
C1372      C1373   1.407       .  A
C1373      C1374   1.400       .  A
C1373      H1376   1.085       .  S
C1374      C1377   1.445   1_655  S
C1377      N1379   1.157       .  T
C1378      N1380   1.157       .  T
C1381      C1382   1.401       .  A
C1381      C1386   1.418       .  A
C1382      C1383   1.401       .  A
C1382      H1387   1.086       .  S
C1383      C1384   1.415       .  A
C1383      C1390   1.445       .  S
C1384      C1385   1.403       .  A
C1385      C1386   1.408       .  A
C1385      H1388   1.086       .  S
C1386      C1389   1.445       .  S
C1389      N1391   1.157       .  T
C1390      N1392   1.157       .  T
Fe1393     O1409   2.051       .  S
Fe1393     O1399   2.077       .  S
Fe1393     O1406   2.069       .  S
Fe1393     O1398   2.045       .  S
Fe1393     O1404   1.941       .  S
Fe1394     O1397   2.071       .  S
Fe1394     O1401   2.094       .  S
Fe1394     O1405   2.087       .  S
Fe1394     O1410   2.065       .  S
Fe1394     O1404   1.950       .  S
Fe1395     O1413   2.037       .  S
Fe1395     O1400   2.080       .  S
Fe1395     O1407   2.072       .  S
Fe1395     O1396   2.084       .  S
Fe1395     O1404   1.952       .  S
O1396      C1403   1.268       .  A
O1397      C1411   1.273       .  A
O1398      C1403   1.257       .  A
O1399      C1402   1.283       .  A
O1400      C1412   1.275       .  A
O1401      C1414   1.264       .  A
C1402      O1407   1.279       .  A
C1402      C1809   1.492       .  S
C1403      C1785   1.489       .  S
O1405      C1408   1.284       .  A
O1406      C1408   1.283       .  A
C1408      C1821   1.480       .  S
O1409      C1414   1.257       .  A
O1410      C1412   1.271       .  A
C1411      O1413   1.265       .  A
C1411      C1800   1.463       .  S
C1412      C1845   1.488       .  S
C1414      C1836   1.491       .  S
Fe1415     O1431   2.047       .  S
Fe1415     O1421   2.082       .  S
Fe1415     O1428   2.083       .  S
Fe1415     O1420   2.034       .  S
Fe1415     O1426   1.943       .  S
Fe1416     O1419   2.053       .  S
Fe1416     O1423   2.094       .  S
Fe1416     O1427   2.085       .  S
Fe1416     O1432   2.064       .  S
Fe1416     O1426   1.934       .  S
Fe1417     O1435   2.046       .  S
Fe1417     O1422   2.077       .  S
Fe1417     O1429   2.070       .  S
Fe1417     O1418   2.075       .  S
Fe1417     O1426   1.957       .  S
O1418      C1425   1.266       .  A
O1419      C1433   1.270       .  A
O1420      C1425   1.256       .  A
O1421      C1424   1.284       .  A
O1422      C1434   1.274       .  A
O1423      C1436   1.263       .  A
C1424      O1429   1.279       .  A
C1424      C1812   1.473       .  S
C1425      C1737   1.493       .  S
O1427      C1430   1.282       .  A
O1428      C1430   1.287       .  A
C1430      C1824   1.496       .  S
O1431      C1436   1.255       .  A
O1432      C1434   1.272       .  A
C1433      O1435   1.264       .  A
C1433      C1752   1.480       .  S
C1436      C1761   1.490       .  S
Fe1437     O1453   2.077       .  S
Fe1437     O1443   2.039       .  S
Fe1437     O1450   2.047       .  S
Fe1437     O1442   2.083       .  S
Fe1437     O1448   1.942       .  S
Fe1438     O1441   2.056       .  S
Fe1438     O1445   2.091       .  S
Fe1438     O1449   2.087       .  S
Fe1438     O1454   2.069       .  S
Fe1438     O1448   1.948       .  S
Fe1439     O1457   2.085       .  S
Fe1439     O1444   2.038       .  S
Fe1439     O1451   2.077       .  S
Fe1439     O1440   2.072       .  S
Fe1439     O1448   1.957       .  S
O1440      C1447   1.276       .  A
O1441      C1455   1.268       .  A
O1442      C1447   1.283       .  A
O1443      C1446   1.257       .  A
O1444      C1456   1.267       .  A
O1445      C1458   1.284       .  A
C1446      O1451   1.269       .  A
C1446      C1704   1.483       .  S
C1447      C1725   1.496       .  S
O1449      C1452   1.263       .  A
O1450      C1452   1.257       .  A
C1452      C1776   1.487       .  S
O1453      C1458   1.283       .  A
O1454      C1456   1.274       .  A
C1455      O1457   1.273       .  A
C1455      C1764   1.485       .  S
C1456      C1797   1.464       .  S
C1458      C1713   1.492       .  S
Fe1459     O1475   2.088       .  S
Fe1459     O1465   2.019       .  S
Fe1459     O1472   2.027       .  S
Fe1459     O1464   2.092       .  S
Fe1459     O1470   1.949       .  S
Fe1460     O1463   2.072       .  S
Fe1460     O1467   2.057       .  S
Fe1460     O1471   2.093       .  S
Fe1460     O1476   2.050       .  S
Fe1460     O1470   1.953       .  S
Fe1461     O1479   2.080       .  S
Fe1461     O1466   2.051       .  S
Fe1461     O1473   2.089       .  S
Fe1461     O1462   2.059       .  S
Fe1461     O1470   1.969       .  S
O1462      C1469   1.276       .  A
O1463      C1477   1.272       .  A
O1464      C1469   1.285       .  A
O1465      C1468   1.253       .  A
O1466      C1478   1.266       .  A
O1467      C1480   1.277       .  A
C1468      O1473   1.268       .  A
C1468      C1689   1.494       .  S
C1469      C1728   1.475       .  S
O1471      C1474   1.264       .  A
O1472      C1474   1.253       .  A
C1474      C1848   1.485       .  S
O1475      C1480   1.286       .  A
O1476      C1478   1.269       .  A
C1477      O1479   1.274       .  A
C1478      C1749   1.475       .  S
C1480      C1716   1.479       .  S
Fe1481     O1497   2.064       .  S
Fe1481     O1487   2.023       .  S
Fe1481     O1494   2.038       .  S
Fe1481     O1486   2.068       .  S
Fe1481     O1492   1.953       .  S
Fe1482     O1485   2.039       .  S
Fe1482     O1489   2.087       .  S
Fe1482     O1493   2.073   1_565  S
Fe1482     O1498   2.073       .  S
Fe1482     O1492   1.949       .  S
Fe1483     O1501   2.092       .  S
Fe1483     O1488   2.044       .  S
Fe1483     O1495   2.084       .  S
Fe1483     O1484   2.076       .  S
Fe1483     O1492   1.962       .  S
O1484      C1491   1.278       .  A
O1485      C1499   1.262       .  A
O1486      C1491   1.280       .  A
O1487      C1490   1.255       .  A
O1488      C1500   1.268       .  A
O1489      C1502   1.286       .  A
C1490      O1495   1.269       .  A
C1490      C1740   1.494       .  S
C1491      C1644   1.477       .  S
O1493      C1496   1.259       .  A
O1494      C1496   1.255   1_565  A
C1496      C1665   1.478       .  S
O1497      C1502   1.280       .  A
O1498      C1500   1.276       .  A
C1499      O1501   1.273       .  A
C1499      C1677   1.489       .  S
C1500      C1632   1.461       .  S
C1502      C1653   1.469       .  S
Fe1503     O1519   2.074       .  S
Fe1503     O1509   2.043       .  S
Fe1503     O1516   2.049       .  S
Fe1503     O1508   2.079       .  S
Fe1503     O1514   1.958       .  S
Fe1504     O1507   2.040       .  S
Fe1504     O1511   2.079       .  S
Fe1504     O1515   2.069   1_565  S
Fe1504     O1520   2.074       .  S
Fe1504     O1514   1.957       .  S
Fe1505     O1523   2.097       .  S
Fe1505     O1510   2.049       .  S
Fe1505     O1517   2.088       .  S
Fe1505     O1506   2.072       .  S
Fe1505     O1514   1.963       .  S
O1506      C1513   1.277       .  A
O1507      C1521   1.261       .  A
O1508      C1513   1.280       .  A
O1509      C1512   1.259       .  A
O1510      C1522   1.271       .  A
O1511      C1524   1.283       .  A
C1512      O1517   1.270       .  A
C1512      C1788   1.491       .  S
C1513      C1641   1.491       .  S
O1515      C1518   1.259   1_545  A
O1516      C1518   1.257       .  A
C1518      C1605   1.479   1_565  S
O1519      C1524   1.281       .  A
O1520      C1522   1.276       .  A
C1521      O1523   1.274       .  A
C1522      C1593   1.489       .  S
C1524      C1656   1.470       .  S
Fe1525     O1541   2.046       .  S
Fe1525     O1531   2.081       .  S
Fe1525     O1538   2.080       .  S
Fe1525     O1530   2.042       .  S
Fe1525     O1536   1.945       .  S
Fe1526     O1529   2.075       .  S
Fe1526     O1533   2.088   1_545  S
Fe1526     O1537   2.087       .  S
Fe1526     O1542   2.055       .  S
Fe1526     O1536   1.956       .  S
Fe1527     O1545   2.044       .  S
Fe1527     O1532   2.081       .  S
Fe1527     O1539   2.075       .  S
Fe1527     O1528   2.077       .  S
Fe1527     O1536   1.959       .  S
O1528      C1535   1.267       .  A
O1529      C1543   1.273       .  A
O1530      C1535   1.258       .  A
O1531      C1534   1.283       .  A
O1532      C1544   1.274       .  A
O1533      C1546   1.264   1_565  A
C1534      O1539   1.276       .  A
C1534      C1581   1.494       .  S
C1535      C1701   1.484       .  S
O1537      C1540   1.281       .  A
O1538      C1540   1.282       .  A
C1540      C1569   1.481       .  S
O1541      C1546   1.259       .  A
O1542      C1544   1.270       .  A
C1543      O1545   1.266       .  A
C1543      C1596   1.472       .  S
C1546      C1680   1.490   1_545  S
Fe1547     O1563   2.033       .  S
Fe1547     O1553   2.080       .  S
Fe1547     O1560   2.083       .  S
Fe1547     O1552   2.023       .  S
Fe1547     O1558   1.944       .  S
Fe1548     O1551   2.056       .  S
Fe1548     O1555   2.094   1_545  S
Fe1548     O1559   2.080       .  S
Fe1548     O1564   2.057       .  S
Fe1548     O1558   1.957       .  S
Fe1549     O1567   2.047       .  S
Fe1549     O1554   2.075       .  S
Fe1549     O1561   2.072       .  S
Fe1549     O1550   2.085       .  S
Fe1549     O1558   1.965       .  S
O1550      C1557   1.267       .  A
O1551      C1565   1.271       .  A
O1552      C1557   1.254       .  A
O1553      C1556   1.284       .  A
O1554      C1566   1.272       .  A
O1555      C1568   1.262   1_565  A
C1556      O1561   1.276       .  A
C1556      C1584   1.490       .  S
C1557      C1692   1.489       .  S
O1559      C1562   1.282       .  A
O1560      C1562   1.283       .  A
C1562      C1572   1.496       .  S
O1563      C1568   1.256       .  A
O1564      C1566   1.268       .  A
C1565      O1567   1.268       .  A
C1565      C1629   1.482       .  S
C1566      C1608   1.480       .  S
C1568      C1617   1.489   1_545  S
C1569      C1570   1.404       .  A
C1569      C1574   1.410       .  A
C1570      C1571   1.407       .  A
C1570      H1575   1.085       .  S
C1571      C1572   1.420       .  A
C1571      C1578   1.444       .  S
C1572      C1573   1.409       .  A
C1573      C1574   1.398       .  A
C1573      H1576   1.085       .  S
C1574      C1577   1.445   1_545  S
C1577      N1579   1.157       .  T
C1578      N1580   1.157       .  T
C1581      C1582   1.402       .  A
C1581      C1586   1.424       .  A
C1582      H1587   1.084       .  S
C1583      C1584   1.423   1_554  A
C1583      C1590   1.444       .  S
C1584      C1585   1.400       .  A
C1585      H1588   1.084       .  S
C1586      C1589   1.445       .  S
C1589      N1591   1.158       .  T
C1590      N1592   1.157       .  T
C1593      C1594   1.411   1_655  A
C1594      H1599   1.083       .  S
C1595      C1602   1.444       .  S
C1596      C1597   1.404       .  A
C1597      H1600   1.082       .  S
C1598      C1601   1.444       .  S
C1601      N1603   1.157       .  T
C1602      N1604   1.157       .  T
C1605      C1606   1.401       .  A
C1605      C1610   1.411       .  A
C1606      C1607   1.405       .  A
C1606      H1611   1.085       .  S
C1607      C1608   1.416       .  A
C1607      C1614   1.444       .  S
C1608      C1609   1.404       .  A
C1609      C1610   1.401       .  A
C1609      H1612   1.085       .  S
C1610      C1613   1.444       .  S
C1613      N1615   1.157   1_545  T
C1614      N1616   1.157       .  T
C1617      C1618   1.401       .  A
C1617      C1622   1.413       .  A
C1618      C1619   1.393       .  A
C1618      H1623   1.088       .  S
C1619      C1620   1.418       .  A
C1620      C1621   1.411       .  A
C1621      C1622   1.415       .  A
C1621      H1624   1.087       .  S
C1622      C1625   1.442       .  S
C1625      N1627   1.157       .  T
C1626      N1628   1.157       .  T
C1629      C1630   1.411       .  A
C1629      C1634   1.411   1_545  A
C1630      H1635   1.084       .  S
C1631      C1632   1.405   1_545  A
C1631      C1638   1.444       .  S
C1632      C1633   1.405       .  A
C1633      H1636   1.086       .  S
C1634      C1637   1.445       .  S
C1637      N1639   1.157       .  T
C1638      N1640   1.157       .  T
C1641      C1642   1.413       .  A
C1641      C1646   1.413       .  A
C1642      H1647   1.086       .  S
C1643      C1644   1.406       .  A
C1643      C1650   1.444       .  S
C1644      C1645   1.406       .  A
C1645      H1648   1.086       .  S
C1646      C1649   1.444       .  S
C1649      N1651   1.157       .  T
C1650      N1652   1.157       .  T
C1653      C1654   1.398       .  A
C1653      C1658   1.411       .  A
C1654      C1655   1.398       .  A
C1654      H1659   1.085       .  S
C1655      C1656   1.411       .  A
C1655      C1662   1.441       .  S
C1656      C1657   1.398       .  A
C1657      C1658   1.398       .  A
C1657      H1660   1.085       .  S
C1658      C1661   1.440       .  S
C1661      N1663   1.156       .  T
C1662      N1664   1.157       .  T
C1665      C1666   1.401       .  A
C1665      C1670   1.412       .  A
C1666      C1667   1.405       .  A
C1666      H1671   1.087       .  S
C1667      C1668   1.417       .  A
C1667      C1674   1.443       .  S
C1668      C1669   1.404       .  A
C1669      C1670   1.398       .  A
C1669      H1672   1.088   1_655  S
C1670      C1673   1.445       .  S
C1673      N1675   1.157   1_545  T
C1674      N1676   1.157       .  T
C1677      C1678   1.410       .  A
C1677      C1682   1.417       .  A
C1678      C1679   1.413       .  A
C1678      H1683   1.082       .  S
C1679      C1680   1.412       .  A
C1679      C1686   1.442       .  S
C1680      C1681   1.403       .  A
C1681      C1682   1.394       .  A
C1681      H1684   1.084   1_565  S
C1682      C1685   1.446       .  S
C1685      N1687   1.157       .  T
C1686      N1688   1.157       .  T
C1689      C1690   1.415       .  A
C1689      C1694   1.411       .  A
C1690      C1691   1.403       .  A
C1690      H1695   1.082       .  S
C1691      C1692   1.409       .  A
C1691      C1698   1.444       .  S
C1692      C1693   1.412       .  A
C1693      C1694   1.401       .  A
C1693      H1696   1.082       .  S
C1694      C1697   1.444       .  S
C1697      N1699   1.157       .  T
C1698      N1700   1.157       .  T
C1701      C1702   1.402       .  A
C1701      C1706   1.416       .  A
C1702      C1703   1.402       .  A
C1702      H1707   1.083       .  S
C1703      C1704   1.419       .  A
C1703      C1710   1.445       .  S
C1704      C1705   1.402       .  A
C1705      C1706   1.401       .  A
C1705      H1708   1.083       .  S
C1706      C1709   1.444       .  S
C1709      N1711   1.157       .  T
C1710      N1712   1.158       .  T
C1713      C1714   1.406       .  A
C1713      C1718   1.418       .  A
C1714      H1719   1.083       .  S
C1715      C1716   1.417       .  A
C1715      C1722   1.446       .  S
C1716      C1717   1.403       .  A
C1717      H1720   1.083       .  S
C1718      C1721   1.442       .  S
C1721      N1723   1.157       .  T
C1722      N1724   1.157       .  T
C1725      C1726   1.418       .  A
C1725      C1730   1.415       .  A
C1726      C1727   1.402       .  A
C1726      H1731   1.084       .  S
C1727      C1728   1.402       .  A
C1727      C1734   1.444       .  S
C1728      C1729   1.405       .  A
C1729      C1730   1.400       .  A
C1729      H1732   1.085       .  S
C1730      C1733   1.444       .  S
C1733      N1735   1.158       .  T
C1734      N1736   1.157       .  T
C1737      C1738   1.416       .  A
C1737      C1742   1.409       .  A
C1738      C1739   1.401       .  A
C1738      H1743   1.081       .  S
C1739      C1740   1.408       .  A
C1739      C1746   1.444       .  S
C1740      C1741   1.417       .  A
C1741      C1742   1.400       .  A
C1741      H1744   1.081       .  S
C1742      C1745   1.445       .  S
C1745      N1747   1.157       .  T
C1746      N1748   1.157       .  T
C1749      C1750   1.402       .  A
C1750      C1751   1.395       .  A
C1750      H1755   1.082       .  S
C1751      C1758   1.445       .  S
C1752      C1753   1.403       .  A
C1753      C1754   1.392   1_655  A
C1753      H1756   1.082       .  S
C1754      C1757   1.446       .  S
C1757      N1759   1.157       .  T
C1758      N1760   1.157       .  T
C1761      C1762   1.408       .  A
C1761      C1766   1.413       .  A
C1762      C1763   1.400       .  A
C1762      H1767   1.086       .  S
C1763      C1764   1.410       .  A
C1763      C1770   1.445       .  S
C1764      C1765   1.408       .  A
C1765      C1766   1.409       .  A
C1765      H1768   1.086       .  S
C1766      C1769   1.443       .  S
C1769      N1771   1.157       .  T
C1770      N1772   1.157       .  T
C1773      C1774   1.401       .  A
C1773      C1778   1.416       .  A
C1774      C1775   1.398       .  A
C1774      H1779   1.086       .  S
C1775      C1776   1.416       .  A
C1775      C1782   1.445       .  S
C1776      C1777   1.406       .  A
C1777      C1778   1.409       .  A
C1777      H1780   1.085       .  S
C1778      C1781   1.445       .  S
C1782      N1784   1.157       .  T
C1785      C1786   1.403       .  A
C1785      C1790   1.418       .  A
C1786      C1787   1.406       .  A
C1786      H1791   1.083       .  S
C1787      C1788   1.419       .  A
C1787      C1794   1.445       .  S
C1788      C1789   1.402       .  A
C1789      C1790   1.404       .  A
C1789      H1792   1.083       .  S
C1790      C1793   1.444       .  S
C1793      N1795   1.157       .  T
C1794      N1796   1.158       .  T
C1797      C1798   1.406       .  A
C1797      C1802   1.408       .  A
C1798      C1799   1.397       .  A
C1798      H1803   1.085       .  S
C1799      C1800   1.409       .  A
C1799      C1806   1.445       .  S
C1800      C1801   1.403       .  A
C1801      C1802   1.393       .  A
C1801      H1804   1.085       .  S
C1802      C1805   1.445       .  S
C1805      N1807   1.157       .  T
C1806      N1808   1.157       .  T
C1809      C1810   1.417       .  A
C1809      C1814   1.414       .  A
C1810      C1811   1.400       .  A
C1810      H1815   1.086       .  S
C1811      C1812   1.402       .  A
C1811      C1818   1.443       .  S
C1812      C1813   1.405       .  A
C1813      C1814   1.398       .  A
C1813      H1816   1.088       .  S
C1814      C1817   1.445       .  S
C1817      N1819   1.158       .  T
C1818      N1820   1.157       .  T
C1821      C1822   1.402       .  A
C1821      C1826   1.413       .  A
C1822      H1827   1.085       .  S
C1823      C1824   1.423       .  A
C1823      C1830   1.446       .  S
C1824      C1825   1.408       .  A
C1825      H1828   1.084       .  S
C1826      C1829   1.444       .  S
C1829      N1831   1.157       .  T
C1830      N1832   1.158       .  T
C1833      C1834   1.408       .  A
C1833      C1838   1.409       .  A
C1834      C1835   1.410       .  A
C1834      H1839   1.084       .  S
C1835      C1836   1.412       .  A
C1835      C1842   1.443       .  S
C1836      C1837   1.408       .  A
C1837      C1838   1.402       .  A
C1837      H1840   1.085       .  S
C1838      C1841   1.445   1_655  S
C1841      N1843   1.158       .  T
C1842      N1844   1.157       .  T
C1845      C1846   1.403       .  A
C1845      C1850   1.418       .  A
C1846      C1847   1.402       .  A
C1846      H1851   1.085       .  S
C1847      C1848   1.416       .  A
C1847      C1854   1.446       .  S
C1848      C1849   1.401       .  A
C1849      C1850   1.408       .  A
C1849      H1852   1.085       .  S
C1850      C1853   1.444       .  S
C1853      N1855   1.157       .  T
C1854      N1856   1.158       .  T
