geometry optimzed in LAMMPS
_audit_creation_date              2020-12-01 
_audit_creation_method            'lammps2cif' 
_symmetry_space_group_name_H-M    'P1' 
_symmetry_Int_Tables_number       1 
_symmetry_cell_setting            triclinic 
loop_ 
_symmetry_equiv_pos_as_xyz 
  x,y,z 
_cell_length_a                    35.35087668 
_cell_length_b                    50.58373661796829 
_cell_length_c                    32.9915830969829 
_cell_angle_alpha                 90.27651549241126 
_cell_angle_beta                  90.07551254824294 
_cell_angle_gamma                 90.36837342335863 
loop_ 
_atom_site_label 
_atom_site_type_symbol 
_atom_site_fract_x 
_atom_site_fract_y 
_atom_site_fract_z 
_atom_site_charge 
O1          O  0.38374144  0.43289153  0.58376724    -0.80400
O2          O  0.35720158  0.54844474  0.61819282    -0.65000
O3          O  0.33682291  0.47679369  0.59016583    -1.11700
C4          C  0.36862784  0.50012896  0.45855835     1.06500
O5          O  0.33100328  0.56465348  0.56260437    -0.78300
O6          O  0.29475430  0.52640246  0.51698690    -0.65800
Ni7        Ni  0.35233992  0.44901270  0.62467094     1.34900
C8          C  0.28518158  0.50283251  0.50745913     0.85300
O9          O  0.32745630  0.50776505  0.65911247    -0.78800
O10         O  0.32190361  0.46359182  0.66722761    -0.89100
C11         C  0.34468030  0.56780950  0.59804237     0.84800
O12         O  0.39613212  0.46467198  0.64913866    -0.67300
O13         O  0.35632206  0.52265529  0.46936816    -0.86600
C14         C  0.41161363  0.48729320  0.64688998     0.85700
C15         C  0.31673738  0.48742055  0.67896893     1.07200
H16         H  0.39322291  0.51812022  0.55209159     0.39000
O17         O  0.36622844  0.51503593  0.55138003    -1.09200
O18         O  0.30697225  0.48313074  0.51358646    -0.65900
Ni19       Ni  0.35741458  0.47868396  0.53701305     1.26300
O20         O  0.39778751  0.50613169  0.62632422    -0.66100
O21         O  0.37715085  0.48211095  0.48370188    -0.78400
C22         C  0.37174425  0.42561089  0.54908971     0.85100
O23         O  0.35228351  0.44123582  0.52738062    -0.65600
Ni24       Ni  0.34441316  0.54157574  0.51804519     1.27400
Ni25       Ni  0.34739771  0.51220437  0.60561617     1.26100
H26         H  0.30966218  0.47515861  0.58780487     0.39600
O27         O  0.37127683  0.81305822  0.66858132    -0.80400
O28         O  0.35296203  0.69477632  0.63961001    -0.65000
O29         O  0.32980249  0.76592555  0.66698870    -1.11700
C30         C  0.37203757  0.74858437  0.79616632     1.06500
O31         O  0.34481958  0.67716669  0.70098056    -0.78300
O32         O  0.29882871  0.71493927  0.73367033    -0.65800
Ni33       Ni  0.34014354  0.79389184  0.63054108     1.34900
C34         C  0.28644021  0.73654241  0.74795803     0.85300
O35         O  0.31588888  0.73283726  0.60109767    -0.78800
O36         O  0.30966724  0.77664894  0.59029719    -0.89100
C37         C  0.34932221  0.67504418  0.66292558     0.84800
O38         O  0.38449651  0.78077207  0.60452671    -0.67300
O39         O  0.35496960  0.72687805  0.78891140    -0.86600
C40         C  0.40098933  0.75857882  0.60329070     0.85700
C41         C  0.30409242  0.75247860  0.58049828     1.07200
H42         H  0.39425439  0.72880892  0.70068386     0.39000
O43         O  0.36720630  0.73033601  0.70402974    -1.09200
O44         O  0.30630067  0.75786945  0.74558197    -0.65900
Ni45       Ni  0.35465251  0.76615791  0.71796092     1.26300
O46         O  0.38949166  0.73886354  0.62410174    -0.66100
O47         O  0.38028400  0.76503673  0.76863058    -0.78400
C48         C  0.36136971  0.81963606  0.70420273     0.85100
O49         O  0.34523194  0.80307239  0.72748339    -0.65600
Ni50       Ni  0.34984013  0.70429176  0.74166027     1.27400
Ni51       Ni  0.34217552  0.73081610  0.65194760     1.26100
H52         H  0.30283070  0.76629893  0.67166732     0.39600
O53         O  0.41268028  0.43155571  0.16676629    -0.80400
O54         O  0.42688756  0.55158823  0.14087976    -0.65000
O55         O  0.45216088  0.48018991  0.16467171    -1.11700
C56         C  0.39377095  0.49726603  0.28971471     1.06500
O57         O  0.44405667  0.56679858  0.20132569    -0.78300
O58         O  0.47214226  0.53203635  0.25752458    -0.65800
Ni59       Ni  0.43978268  0.45240089  0.12759537     1.34900
C60         C  0.48776273  0.50952940  0.26024254     0.85300
O61         O  0.46497555  0.51431904  0.10022500    -0.78800
O62         O  0.46619560  0.47066735  0.08577289    -0.89100
C63         C  0.43514504  0.57070465  0.16436519     0.84800
O64         O  0.39255353  0.46497072  0.10721055    -0.67300
O65         O  0.40075434  0.52163585  0.28307228    -0.86600
C66         C  0.37754659  0.48766300  0.10627608     0.85700
C67         C  0.47335251  0.49475369  0.07734989     1.07200
H68         H  0.38649739  0.51475519  0.19711931     0.39000
O69         O  0.41344264  0.51478767  0.20205902    -1.09200
O70         O  0.47370435  0.48846216  0.24446154    -0.65900
Ni71       Ni  0.42711723  0.47930830  0.21537121     1.26300
O72         O  0.39218542  0.50787203  0.12323525    -0.66100
O73         O  0.40054436  0.47876595  0.26492482    -0.78400
C74         C  0.42411572  0.42575869  0.20207056     0.85100
O75         O  0.43927598  0.44308379  0.22477270    -0.65600
Ni76       Ni  0.42261366  0.54244639  0.24043649     1.27400
Ni77       Ni  0.43908596  0.51554019  0.15110156     1.26100
H78         H  0.47915578  0.47964210  0.16918881     0.39600
O79         O  0.41462274  0.81496403  0.09075008    -0.80400
O80         O  0.43368093  0.69791583  0.12144395    -0.65000
O81         O  0.45723229  0.76868553  0.09242369    -1.11700
C82         C  0.41425936  0.74900009  0.96370280     1.06500
O83         O  0.44399122  0.67922540  0.06105802    -0.78300
O84         O  0.48907641  0.71753990  0.02528815    -0.65800
Ni85       Ni  0.44663548  0.79691920  0.12873279     1.34900
C86         C  0.50057930  0.73943140  0.01085131     0.85300
O87         O  0.47091648  0.73678790  0.15902729    -0.78800
O88         O  0.47798922  0.78081075  0.16876225    -0.89100
C89         C  0.43779508  0.67772442  0.09904276     0.84800
O90         O  0.40263645  0.78334179  0.15552530    -0.67300
O91         O  0.43122277  0.72741080  0.97131075    -0.86600
C92         C  0.38532358  0.76128094  0.15481421     0.85700
C93         C  0.48318978  0.75680232  0.17892063     1.07200
H94         H  0.39331438  0.73007039  0.05919930     0.39000
O95         O  0.42034905  0.73203880  0.05596837    -1.09200
O96         O  0.48030114  0.76035920  0.01364962    -0.65900
Ni97       Ni  0.43206823  0.76792457  0.04160142     1.26300
O98         O  0.39720702  0.74158076  0.13437370    -0.66100
O99         O  0.40622633  0.76576019  0.99105513    -0.78400
C100        C  0.42396817  0.82135134  0.05491538     0.85100
O101        O  0.44057694  0.80493840  0.03175359    -0.65600
Ni102      Ni  0.43798636  0.70562952  0.01915290     1.27400
Ni103      Ni  0.44499792  0.73366168  0.10807828     1.26100
H104        H  0.48418012  0.76931981  0.08761795     0.39600
O105        O  0.07062091  0.43037698  0.31093572    -0.80400
O106        O  0.10309243  0.55245393  0.27601884    -0.65000
O107        O  0.11082320  0.47844761  0.30076285    -1.11700
C108        C  0.05762450  0.50821231  0.42573278     1.06500
O109        O  0.13169248  0.56063491  0.33433144    -0.78300
O110        O  0.13794777  0.52961944  0.40046446    -0.65800
Ni111      Ni  0.08717081  0.45247493  0.26678536     1.34900
C112        C  0.15278679  0.50688811  0.40089064     0.85300
O113        O  0.12637757  0.51037335  0.23325583    -0.78800
O114        O  0.10206448  0.47055023  0.21836994    -0.89100
C115        C  0.12261661  0.56776603  0.29876946     0.84800
O116        O  0.03879459  0.46909241  0.26500879    -0.67300
O117        O  0.06321561  0.53180126  0.41315893    -0.86600
C118        C  0.03126429  0.49283752  0.25551694     0.85700
C119        C  0.11748925  0.49226824  0.20791268     1.07200
H120        H  0.05537182  0.51934136  0.33435333     0.39000
O121        O  0.08234357  0.51751203  0.33803267    -1.09200
O122        O  0.14047212  0.48811401  0.37824363    -0.65900
Ni123      Ni  0.09059328  0.48212227  0.35438351     1.26300
O124        O  0.05495786  0.51176021  0.26086424    -0.66100
O125        O  0.06856430  0.48740728  0.40698136    -0.78400
C126        C  0.08528922  0.42664673  0.34558825     0.85100
O127        O  0.09836333  0.44559476  0.36693901    -0.65600
Ni128      Ni  0.09681279  0.54555327  0.37274300     1.27400
Ni129      Ni  0.10498712  0.51487510  0.28587644     1.26100
H130        H  0.13749787  0.47452751  0.30237007     0.39600
O131        O  0.08215473  0.31618632  0.44184627    -0.80400
O132        O  0.11401254  0.19421273  0.47898467    -0.65000
O133        O  0.12036404  0.26749639  0.44977262    -1.11700
C134        C  0.06310038  0.23478006  0.32809391     1.06500
O135        O  0.14001767  0.18440916  0.42013370    -0.78300
O136        O  0.14581231  0.21515373  0.35346952    -0.65800
Ni137      Ni  0.09839830  0.29322418  0.48477150     1.34900
C138        C  0.15856301  0.23858416  0.35139250     0.85300
O139        O  0.14233769  0.23717167  0.51660316    -0.78800
O140        O  0.11309980  0.27456174  0.53241597    -0.89100
C141        C  0.13082893  0.17787706  0.45592693     0.84800
O142        O  0.05010812  0.27645575  0.48614843    -0.67300
O143        O  0.07109141  0.21146201  0.34010047    -0.86600
C144        C  0.04342278  0.25333855  0.49942618     0.85700
C145        C  0.13274125  0.25466184  0.54230817     1.07200
H146        H  0.06362544  0.22431214  0.42182436     0.39000
O147        O  0.09020438  0.22701478  0.41630933    -1.09200
O148        O  0.14452398  0.25766068  0.37171598    -0.65900
Ni149      Ni  0.09610851  0.26244071  0.39835102     1.26300
O150        O  0.06757245  0.23467143  0.49569660    -0.66100
O151        O  0.07134483  0.25585229  0.34775975    -0.78400
C152        C  0.09030525  0.31846474  0.40452561     0.85100
O153        O  0.10109605  0.29887149  0.38329268    -0.65600
Ni154      Ni  0.10483407  0.19882798  0.38139750     1.27400
Ni155      Ni  0.11607310  0.23130044  0.46667634     1.26100
H156        H  0.14672415  0.27187958  0.44597117     0.39600
O157        O  0.20310330  0.42992490  0.94352511    -0.80400
O158        O  0.18591772  0.55296884  0.97409173    -0.65000
O159        O  0.16807351  0.48001792  0.94807705    -1.11700
C160        C  0.23528869  0.50398954  0.82852558     1.06500
O161        O  0.16408554  0.56335455  0.91338905    -0.78300
O162        O  0.15489047  0.53116818  0.84846834    -0.65800
Ni163      Ni  0.18077260  0.45236448  0.98455688     1.34900
C164        C  0.13671598  0.50944752  0.84863358     0.85300
O165        O  0.15115456  0.51405370  0.01309808    -0.78800
O166        O  0.15928313  0.47132525  0.02948123    -0.89100
C167        C  0.17038553  0.56934065  0.95025799     0.84800
O168        O  0.22971849  0.46513694  0.99916649    -0.67300
O169        O  0.23083680  0.52798149  0.83961142    -0.86600
C170        C  0.24170797  0.48840071  0.00650409     0.85700
C171        C  0.14921153  0.49489341  0.03777076     1.07200
H172        H  0.23259741  0.51682871  0.92039537     0.39000
O173        O  0.20591675  0.51641176  0.91401494    -1.09200
O174        O  0.14730735  0.48954165  0.86923637    -0.69100
Ni175      Ni  0.19412814  0.48129368  0.89734261     1.26300
O176        O  0.22480668  0.50915941  0.99409347    -0.66100
O177        O  0.22145928  0.48407233  0.84721480    -0.78400
C178        C  0.19326014  0.42620276  0.90681975     0.85100
O179        O  0.18292375  0.44522651  0.88451545    -0.65600
Ni180      Ni  0.19775592  0.54463295  0.87755522     1.27400
Ni181      Ni  0.17845783  0.51590851  0.96354786     1.26100
H182        H  0.14122128  0.47850301  0.94297067     0.39600
O183        O  0.20467074  0.31602875  0.80684504    -0.80400
O184        O  0.18232833  0.19066095  0.78124924    -0.65000
O185        O  0.17250268  0.26486878  0.80335117    -1.11700
C186        C  0.23280573  0.24029982  0.92671521     1.06500
O187        O  0.15792976  0.18261665  0.84175517    -0.78300
O188        O  0.14996691  0.21621401  0.90541729    -0.65800
Ni189      Ni  0.19416083  0.28940143  0.76627445     1.34900
C190        C  0.13474628  0.23878624  0.90306476     0.85300
O191        O  0.15217998  0.23126718  0.73993545    -0.78800
O192        O  0.18417522  0.26710215  0.72046281    -0.89100
C193        C  0.16464274  0.17542789  0.80544796     0.84800
O194        O  0.24337413  0.27470232  0.77138812    -0.67300
O195        O  0.22543566  0.21624536  0.91758106    -0.86600
C196        C  0.25168060  0.25165297  0.75874006     0.85700
C197        C  0.16107554  0.24829405  0.71337761     1.07200
H198        H  0.23171485  0.22523535  0.83536764     0.39000
O199        O  0.20497525  0.22713755  0.84055092    -1.09200
O200        O  0.14814909  0.25731074  0.88118772    -0.65900
Ni201      Ni  0.19672498  0.26297731  0.85503282     1.26300
O202        O  0.22789103  0.23238821  0.76147923    -0.66100
O203        O  0.22222099  0.25994914  0.90564712    -0.78400
C204        C  0.19673385  0.31877518  0.84417142     0.85100
O205        O  0.18907438  0.29943712  0.86709730    -0.65600
Ni206      Ni  0.19216977  0.20034871  0.87847535     1.27400
Ni207      Ni  0.17901800  0.22822153  0.79004482     1.26100
H208        H  0.14587687  0.26860221  0.80641036     0.39600
O209        O  0.38614378  0.31237276  0.16623979    -0.80400
O210        O  0.35039172  0.19662794  0.13740569    -0.65000
O211        O  0.33738207  0.26892259  0.16603256    -1.11700
C212        C  0.37874055  0.24605708  0.29299347     1.06500
O213        O  0.33373017  0.18008562  0.19730445    -0.78300
O214        O  0.29663859  0.22222847  0.23168937    -0.65800
Ni215      Ni  0.35029997  0.29627001  0.12949732     1.34900
C216        C  0.28955507  0.24516166  0.24553253     0.85300
O217        O  0.31915465  0.23762302  0.09964324    -0.78800
O218        O  0.31568040  0.28171900  0.09051711    -0.89100
C219        C  0.34150071  0.17723756  0.15992285     0.84800
O220        O  0.39080431  0.28001721  0.10069063    -0.67300
O221        O  0.35457202  0.22808069  0.28496986    -0.86600
C222        C  0.40544193  0.25720648  0.10125729     0.85700
C223        C  0.30877252  0.25787371  0.07969871     1.07200
H224        H  0.39479177  0.22571382  0.19898670     0.39000
O225        O  0.36836403  0.23015398  0.20200259    -1.09200
O226        O  0.31450381  0.26365112  0.24434526    -0.65900
Ni227      Ni  0.36344208  0.26670828  0.21629401     1.26300
O228        O  0.39282166  0.23861912  0.12368033    -0.66100
O229        O  0.38980321  0.26249183  0.26647395    -0.78400
C230        C  0.37969137  0.31911377  0.20278521     0.85100
O231        O  0.36142586  0.30395207  0.22638185    -0.65600
Ni232      Ni  0.34469312  0.20616769  0.23846140     1.27400
Ni233      Ni  0.34430948  0.23322544  0.15029892     1.26100
H234        H  0.31072288  0.27107934  0.17137994     0.39600
O235        O  0.38251829  0.93515109  0.09274909    -0.80400
O236        O  0.35308419  0.05073070  0.11885815    -0.65000
O237        O  0.33531513  0.97881074  0.09262504    -1.11700
C238        C  0.36986813  0.99937365  0.96062899     1.06500
O239        O  0.33063681  0.06659437  0.06085097    -0.78300
O240        O  0.29429584  0.02608677  0.02023051    -0.65800
Ni241      Ni  0.34800104  0.95197389  0.13003430     1.34900
C242        C  0.28572296  0.00245490  0.01013823     0.85300
O243        O  0.32072316  0.01119458  0.15867087    -0.78800
O244        O  0.31419941  0.96742613  0.16896316    -0.89100
C245        C  0.34163611  0.06969472  0.09730507     0.84800
O246        O  0.38962179  0.96820275  0.15803353    -0.67300
O247        O  0.35542906  0.02139356  0.97081270    -0.86600
C248        C  0.40604846  0.99041267  0.15447926     0.85700
C249        C  0.30810196  0.99154342  0.17872330     1.07200
H250        H  0.39276579  0.02018312  0.05546480     0.39000
O251        O  0.36594716  0.01654332  0.05361269    -1.09200
O252        O  0.30858349  0.98320695  0.01523862    -0.65900
Ni253      Ni  0.35846351  0.97980774  0.04045345     1.26300
O254        O  0.39387137  0.00848223  0.13103673    -0.66100
O255        O  0.37986374  0.98234199  0.98696060    -0.78400
C256        C  0.37433130  0.92755676  0.05686618     0.85100
O257        O  0.35513518  0.94215164  0.03316464    -0.65600
Ni258      Ni  0.34362223  0.04179861  0.01827162     1.27400
Ni259      Ni  0.34443498  0.01441517  0.10690437     1.26100
H260        H  0.30832379  0.97707057  0.08871099     0.39600
O261        O  0.40982531  0.31244541  0.59014686    -0.80400
O262        O  0.43802426  0.19593849  0.61982850    -0.65000
O263        O  0.45662410  0.26781560  0.59194330    -1.11700
C264        C  0.41701614  0.24447077  0.46334592     1.06500
O265        O  0.45998461  0.17926287  0.56181474    -0.78300
O266        O  0.49820648  0.22029264  0.52387360    -0.65800
Ni267      Ni  0.44345514  0.29552073  0.62811591     1.34900
C268        C  0.50592460  0.24324244  0.51042630     0.85300
O269        O  0.46944002  0.23622821  0.65965425    -0.78800
O270        O  0.47568372  0.28031681  0.66856433    -0.89100
C271        C  0.44855159  0.17654080  0.59818025     0.84800
O272        O  0.40100560  0.28004682  0.65481689    -0.67300
O273        O  0.43877583  0.22532441  0.47201499    -0.86600
C274        C  0.38556283  0.25735277  0.65451267     0.85700
C275        C  0.48044710  0.25639117  0.67977879     1.07200
H276        H  0.39876385  0.22528848  0.55619117     0.39000
O277        O  0.42547557  0.22931594  0.55450059    -1.09200
O278        O  0.48182333  0.26207935  0.51306907    -0.65900
Ni279      Ni  0.43234166  0.26574573  0.54049190     1.26300
O280        O  0.39764246  0.23859632  0.63197384    -0.66100
O281        O  0.40723798  0.26160513  0.48954804    -0.78400
C282        C  0.41740838  0.31871628  0.55372523     0.85100
O283        O  0.43580143  0.30311548  0.53081584    -0.65600
Ni284      Ni  0.44911708  0.20444651  0.51930860     1.27400
Ni285      Ni  0.44689068  0.23226193  0.60750954     1.26100
H286        H  0.48356432  0.26944714  0.58763483     0.39600
O287        O  0.40796150  0.93128566  0.66207175    -0.80400
O288        O  0.43473521  0.04996922  0.63865668    -0.65000
O289        O  0.45257574  0.97767268  0.66375426    -1.11700
C290        C  0.39713873  0.99657690  0.78951956     1.06500
O291        O  0.44927656  0.06566079  0.69984429    -0.78300
O292        O  0.47859060  0.02832565  0.75099592    -0.65800
Ni293      Ni  0.44098744  0.95037975  0.62568729     1.34900
C294        C  0.49019932  0.00491851  0.75686924     0.85300
O295        O  0.47030636  0.01106461  0.59920403    -0.78800
O296        O  0.47282336  0.96720958  0.58623807    -0.89100
C297        C  0.44291212  0.06912856  0.66217560     0.84800
O298        O  0.39763995  0.96521235  0.60006593    -0.67300
O299        O  0.40889728  0.02009816  0.78326067    -0.86600
C300        C  0.38313961  0.98808286  0.59939548     0.85700
C301        C  0.48013839  0.99128030  0.57745567     1.07200
H302        H  0.38970258  0.01580762  0.69471553     0.39000
O303        O  0.41640995  0.01410049  0.70016999    -1.09200
O304        O  0.47230343  0.98425959  0.74441596    -0.65900
Ni305      Ni  0.42555251  0.97778479  0.71359506     1.26300
O306        O  0.39634428  0.00733612  0.62019390    -0.66100
O307        O  0.39784027  0.97843172  0.76294930    -0.78400
C308        C  0.41394541  0.92510621  0.69887196     0.85100
O309        O  0.43207259  0.94065401  0.72230044    -0.65600
Ni310      Ni  0.42902270  0.04082428  0.73919115     1.27400
Ni311      Ni  0.44319680  0.01344066  0.64955902     1.26100
H312        H  0.47926556  0.97623679  0.66968100     0.39600
O313        O  0.58842212  0.93464882  0.30485913    -0.80400
O314        O  0.60169783  0.05879009  0.27922418    -0.65000
O315        O  0.62147517  0.98612838  0.30298030    -1.11700
C316        C  0.55733269  0.00868684  0.42525887     1.06500
O317        O  0.62640928  0.06938704  0.33872904    -0.78300
O318        O  0.63877915  0.03647597  0.40223973    -0.65800
Ni319      Ni  0.60962650  0.95864199  0.26492996     1.34900
C320        C  0.65412390  0.01388417  0.40349664     0.85300
O321        O  0.63752271  0.02132294  0.23914893    -0.78800
O322        O  0.63066402  0.97875767  0.22088606    -0.89100
C323        C  0.61825505  0.07532694  0.30232067     0.84800
O324        O  0.56014925  0.97043204  0.25065086    -0.67300
O325        O  0.56374505  0.03283375  0.41608225    -0.86600
C326        C  0.54702702  0.99355950  0.24600247     0.85700
C327        C  0.64055184  0.00258692  0.21375035     1.07200
H328        H  0.55725117  0.02280963  0.33336026     0.39000
O329        O  0.58405574  0.02204393  0.33895984    -1.09200
O330        O  0.64185556  0.99424197  0.38282247    -0.65900
Ni331      Ni  0.59521641  0.98666765  0.35375473     1.26300
O332        O  0.56371603  0.01445280  0.25912659    -0.66100
O333        O  0.56816819  0.98892263  0.40403387    -0.78400
C334        C  0.59668105  0.93109090  0.34206937     0.85100
O335        O  0.60557768  0.95035500  0.36513703    -0.65600
Ni336      Ni  0.59468818  0.04998961  0.37613569     1.27400
Ni337      Ni  0.61048147  0.02202899  0.28883489     1.26100
H338        H  0.64832775  0.98508018  0.30819325     0.39600
O339        O  0.57974559  0.82108366  0.44255893    -0.80400
O340        O  0.60446447  0.69818218  0.48020983    -0.65000
O341        O  0.61613187  0.77180243  0.45405914    -1.11700
C342        C  0.56243581  0.74163940  0.32914976     1.06500
O343        O  0.63312590  0.68903874  0.42245010    -0.78300
O344        O  0.64277222  0.71927915  0.35632722    -0.65800
Ni345      Ni  0.59399946  0.79848937  0.48739931     1.34900
C346        C  0.65959226  0.74144235  0.35858197     0.85300
O347        O  0.63027070  0.74021067  0.52198503    -0.78800
O348        O  0.60733756  0.78030272  0.53633387    -0.89100
C349        C  0.62270738  0.68220026  0.45768204     0.84800
O350        O  0.54458849  0.78269417  0.48914250    -0.67300
O351        O  0.56776141  0.71805544  0.34142061    -0.86600
C352        C  0.53600811  0.75920107  0.49976468     0.85700
C353        C  0.62193731  0.75847510  0.54708990     1.07200
H354        H  0.55892068  0.73122966  0.42068593     0.39000
O355        O  0.58598568  0.73274074  0.41722402    -1.09200
O356        O  0.64628200  0.76092601  0.37865182    -0.65900
Ni357      Ni  0.59603684  0.76787719  0.40035171     1.26300
O358        O  0.55871115  0.73986767  0.49449847    -0.66100
O359        O  0.57407463  0.76244201  0.34763049    -0.78400
C360        C  0.59330779  0.82367957  0.40701275     0.85100
O361        O  0.60540574  0.80408926  0.38668483    -0.65600
Ni362      Ni  0.59987874  0.70428467  0.38285991     1.27400
Ni363      Ni  0.60852880  0.73559472  0.46953394     1.26100
H364        H  0.64301045  0.77527181  0.45264208     0.39600
O365        O  0.70569557  0.93241574  0.94389469    -0.80400
O366        O  0.68538565  0.05689105  0.97099448    -0.65000
O367        O  0.67093276  0.98261790  0.95097214    -1.11700
C368        C  0.72739942  0.00633037  0.82498823     1.06500
O369        O  0.65644994  0.06440543  0.91259295    -0.78300
O370        O  0.64524132  0.03080705  0.84857515    -0.65800
Ni371      Ni  0.69232195  0.95693980  0.98618939     1.34900
C372        C  0.62916142  0.00843556  0.85185038     0.85300
O373        O  0.65946440  0.01734294  0.01736340    -0.78800
O374        O  0.68029335  0.97720901  0.03323743    -0.89100
C375        C  0.66660652  0.07208775  0.94784791     0.84800
O376        O  0.74227157  0.97175038  0.98564580    -0.67300
O377        O  0.72041591  0.03041758  0.83409078    -0.86600
C378        C  0.75197899  0.99543459  0.99405943     0.85700
C379        C  0.66784387  0.99976506  0.04340115     1.07200
H380        H  0.72910197  0.02128102  0.91434473     0.39000
O381        O  0.70200955  0.01972309  0.91114592    -1.09200
O382        O  0.64224225  0.99002208  0.87398468    -0.65900
Ni383      Ni  0.69189563  0.98403728  0.89752506     1.26300
O384        O  0.73007314  0.01506832  0.98798375    -0.66100
O385        O  0.71532057  0.98670703  0.84549788    -0.78400
C386        C  0.69446522  0.92871395  0.90771596     0.85100
O387        O  0.68244635  0.94761316  0.88629650    -0.65600
Ni388      Ni  0.68861883  0.04658522  0.87408956     1.27400
Ni389      Ni  0.68001171  0.01928919  0.96372455     1.26100
H390        H  0.64395527  0.97955198  0.94946990     0.39600
O391        O  0.70687083  0.81633770  0.81324933    -0.80400
O392        O  0.68506077  0.69413111  0.78034785    -0.65000
O393        O  0.66984774  0.76696901  0.80707872    -1.11700
C394        C  0.73292629  0.74077600  0.92758630     1.06500
O395        O  0.66042575  0.68418496  0.83985027    -0.78300
O396        O  0.65280237  0.71555534  0.90601720    -0.65800
Ni397      Ni  0.68498372  0.79445067  0.77130606     1.34900
C398        C  0.63532491  0.73738090  0.90583993     0.85300
O399        O  0.65172891  0.73358218  0.74176386    -0.78800
O400        O  0.66377920  0.77596753  0.72566031    -0.89100
C401        C  0.66793696  0.67801035  0.80338626     0.84800
O402        O  0.73387034  0.78103014  0.75879455    -0.67300
O403        O  0.72804030  0.71692024  0.91597059    -0.86600
C404        C  0.74428145  0.75769367  0.75014480     0.85700
C405        C  0.65155077  0.75284067  0.71723818     1.07200
H406        H  0.73224073  0.72909403  0.83554671     0.39000
O407        O  0.70547224  0.72984599  0.84131992    -1.09200
O408        O  0.64675409  0.75709126  0.88505842    -0.65900
Ni409      Ni  0.69471256  0.76489756  0.85841674     1.26300
O410        O  0.72576797  0.73715635  0.76124613    -0.66100
O411        O  0.72055345  0.76110248  0.90908307    -0.78400
C412        C  0.69541010  0.82005577  0.84928060     0.85100
O413        O  0.68494615  0.80103917  0.87168117    -0.65600
Ni414      Ni  0.69481010  0.70146637  0.87689748     1.27400
Ni415      Ni  0.67881697  0.73106321  0.79134616     1.26100
H416        H  0.64298104  0.76892533  0.81142766     0.39600
O417        O  0.87696261  0.81665406  0.16714677    -0.80400
O418        O  0.85641091  0.69843744  0.13781153    -0.65000
O419        O  0.83400641  0.76981593  0.16510556    -1.11700
C420        C  0.88673086  0.75031740  0.29065344     1.06500
O421        O  0.83857631  0.68219559  0.19717573    -0.78300
O422        O  0.80658158  0.71850955  0.24692755    -0.65800
Ni423      Ni  0.84632887  0.79763508  0.12848585     1.34900
C424        C  0.79533607  0.74148423  0.25659547     0.85300
O425        O  0.81987552  0.73682737  0.09929046    -0.78800
O426        O  0.81681755  0.78076281  0.08736952    -0.89100
C427        C  0.84707859  0.67910052  0.16003191     0.84800
O428        O  0.89122138  0.78399500  0.10416895    -0.67300
O429        O  0.87484380  0.72694482  0.28347616    -0.86600
C430        C  0.90674933  0.76146843  0.10398395     0.85700
C431        C  0.81028032  0.75668934  0.07803451     1.07200
H432        H  0.89786733  0.73242724  0.19691285     0.39000
O433        O  0.87090678  0.73376841  0.20116639    -1.09200
O434        O  0.81323053  0.76241551  0.24587473    -0.65900
Ni435      Ni  0.85985122  0.76973856  0.21553359     1.26300
O436        O  0.89314390  0.74175126  0.12292991    -0.66100
O437        O  0.88686558  0.76883499  0.26498806    -0.78400
C438        C  0.86625879  0.82320900  0.20244742     0.85100
O439        O  0.85068200  0.80646329  0.22562189    -0.65600
Ni440      Ni  0.85689164  0.70654294  0.23809630     1.27400
Ni441      Ni  0.84567358  0.73446922  0.14997421     1.26100
H442        H  0.80712978  0.77069312  0.17015985     0.39600
O443        O  0.87445625  0.43599899  0.08747180    -0.80400
O444        O  0.84383232  0.55255873  0.11683797    -0.65000
O445        O  0.82858062  0.48041077  0.08806008    -1.11700
C446        C  0.87471682  0.49968302  0.96114285     1.06500
O447        O  0.84266309  0.57053118  0.05508194    -0.78300
O448        O  0.79851616  0.53203331  0.01974149    -0.65800
Ni449      Ni  0.84058313  0.45295794  0.12475763     1.34900
C450        C  0.78723461  0.50983861  0.00601727     0.85300
O451        O  0.80886259  0.51220549  0.15308748    -0.78800
O452        O  0.80792640  0.46822481  0.16458690    -0.89100
C453        C  0.84337110  0.57243639  0.09349919     0.84800
O454        O  0.88296098  0.46837268  0.15184048    -0.67300
O455        O  0.85679624  0.52097880  0.96764751    -0.86600
C456        C  0.89688406  0.49149718  0.15381983     0.85700
C457        C  0.79969095  0.49198479  0.17421667     1.07200
H458        H  0.89127210  0.52010046  0.05858664     0.39000
O459        O  0.86506891  0.51778815  0.05333402    -1.09200
O460        O  0.80750501  0.48883809  0.00915745    -0.65900
Ni461      Ni  0.85542346  0.48159026  0.03840162     1.26300
O462        O  0.88355674  0.51072330  0.13361625    -0.66100
O463        O  0.88313242  0.48379683  0.98919602    -0.78400
C464        C  0.86500996  0.42836468  0.05219084     0.85100
O465        O  0.84879673  0.44425622  0.02796905    -0.65600
Ni466      Ni  0.84949811  0.54351846  0.01459343     1.27400
Ni467      Ni  0.83697290  0.51603554  0.10361336     1.26100
H468        H  0.80188975  0.47848068  0.08216522     0.39600
O469        O  0.90928460  0.43638517  0.66601292    -0.80400
O470        O  0.93952993  0.55405283  0.63969857    -0.65000
O471        O  0.95539261  0.48164987  0.66484496    -1.11700
C472        C  0.91456616  0.49928450  0.79416428     1.06500
O473        O  0.94628677  0.57104437  0.70169734    -0.78300
O474        O  0.98989123  0.53165215  0.73350814    -0.65800
Ni475      Ni  0.94166077  0.45440205  0.62788572     1.34900
C476        C  0.00074148  0.50938865  0.74659488     0.85300
O477        O  0.97247662  0.51438431  0.60037076    -0.78800
O478        O  0.97321314  0.47042906  0.58750357    -0.89100
C479        C  0.94347955  0.57369882  0.66349393     0.84800
O480        O  0.89814006  0.46987308  0.60344956    -0.67300
O481        O  0.93282795  0.52062923  0.78783054    -0.86600
C482        C  0.88430684  0.49295599  0.60273696     0.85700
C483        C  0.98154696  0.49435843  0.57881132     1.07200
H484        H  0.89413339  0.52104803  0.69904514     0.39000
O485        O  0.92100563  0.51855018  0.70272556    -1.09200
O486        O  0.97962280  0.48868415  0.74333679    -0.65900
Ni487      Ni  0.93069839  0.48220115  0.71555336     1.26300
O488        O  0.89857016  0.51209333  0.62304235    -0.66100
O489        O  0.90491333  0.48372239  0.76582483    -0.78400
C490        C  0.91893115  0.42939450  0.70150233     0.85100
O491        O  0.93755359  0.44507247  0.72428619    -0.65600
Ni492      Ni  0.93953811  0.54366687  0.74146902     1.27400
Ni493      Ni  0.94648510  0.51741836  0.65106609     1.26100
H494        H  0.98225940  0.47985357  0.66941623     0.39600
O495        O  0.90358105  0.81588714  0.58473097    -0.80400
O496        O  0.93764014  0.70009787  0.61956258    -0.65000
O497        O  0.95177442  0.77218970  0.59028369    -1.11700
C498        C  0.91592490  0.74690469  0.46023052     1.06500
O499        O  0.95912911  0.68319397  0.56172440    -0.78300
O500        O  0.99339241  0.72255532  0.51815278    -0.65800
Ni501      Ni  0.93548545  0.79983996  0.62541068     1.34900
C502        C  0.00178297  0.74606668  0.50770940     0.85300
O503        O  0.96776523  0.74174723  0.65803960    -0.78800
O504        O  0.96635840  0.78590961  0.66836372    -0.89100
C505        C  0.94807142  0.68061452  0.59811009     0.84800
O506        O  0.89186787  0.78350211  0.64872119    -0.67300
O507        O  0.93109482  0.72526357  0.47049817    -0.86600
C508        C  0.87868282  0.76012765  0.64848686     0.85700
C509        C  0.97560067  0.76248311  0.67868000     1.07200
H510        H  0.89580776  0.72887836  0.55556933     0.39000
O511        O  0.92254292  0.73263636  0.55326259    -1.09200
O512        O  0.97887798  0.76530422  0.51275564    -0.65900
Ni513      Ni  0.92906818  0.76905321  0.53807532     1.26300
O514        O  0.89489063  0.74102451  0.63036099    -0.66100
O515        O  0.90682081  0.76464256  0.48579793    -0.78400
C516        C  0.91417506  0.82231964  0.54925105     0.85100
O517        O  0.93277173  0.80626827  0.52735145    -0.65600
Ni518      Ni  0.94441380  0.70651977  0.51855750     1.27400
Ni519      Ni  0.94446863  0.73647651  0.60623027     1.26100
H520        H  0.97866038  0.77481451  0.58673987     0.39600
O521        O  0.70682227  0.43527187  0.44615306    -0.80400
O522        O  0.68341699  0.55866227  0.47666156    -0.65000
O523        O  0.66921334  0.48453756  0.45500846    -1.11700
C524        C  0.72401422  0.50888623  0.32828653     1.06500
O525        O  0.65542308  0.56696026  0.41797242    -0.78300
O526        O  0.64380433  0.53399058  0.35352621    -0.65800
Ni527      Ni  0.69046511  0.45833068  0.48929706     1.34900
C528        C  0.62697404  0.51186434  0.35638791     0.85300
O529        O  0.65745924  0.51857768  0.52205644    -0.78800
O530        O  0.67560393  0.47737240  0.53635389    -0.89100
C531        C  0.66511007  0.57415267  0.45358911     0.84800
O532        O  0.73997323  0.47382770  0.49290143    -0.67300
O533        O  0.71872470  0.53298897  0.33863974    -0.86600
C534        C  0.74949533  0.49759958  0.50111190     0.85700
C535        C  0.66422418  0.50008416  0.54718072     1.07200
H536        H  0.72739643  0.52303898  0.41913758     0.39000
O537        O  0.70028384  0.52180730  0.41581618    -1.09200
O538        O  0.63942427  0.49308139  0.37839189    -0.65900
Ni539      Ni  0.68934672  0.48623108  0.40132993     1.26300
O540        O  0.72797301  0.51718959  0.49358865    -0.66100
O541        O  0.71193744  0.48921464  0.34879029    -0.78400
C542        C  0.69270914  0.43104399  0.41130530     0.85100
O543        O  0.67917722  0.44961956  0.39010016    -0.65600
Ni544      Ni  0.68744716  0.54912949  0.37926264     1.27400
Ni545      Ni  0.67817327  0.52110509  0.46855702     1.26100
H546        H  0.64221733  0.48151894  0.45369873     0.39600
O547        O  0.71477411  0.31944044  0.31693799    -0.80400
O548        O  0.68470192  0.19751829  0.27684475    -0.65000
O549        O  0.67675345  0.27065444  0.30627336    -1.11700
C550        C  0.73688573  0.24037430  0.42619542     1.06500
O551        O  0.66141187  0.18692057  0.33689111    -0.78300
O552        O  0.65632627  0.21721133  0.40495727    -0.65800
Ni553      Ni  0.70034027  0.29635841  0.27262851     1.34900
C554        C  0.63993147  0.23946614  0.40541746     0.85300
O555        O  0.65562054  0.24026853  0.23981333    -0.78800
O556        O  0.68652222  0.27746889  0.22411956    -0.89100
C557        C  0.66822952  0.18110740  0.30008015     0.84800
O558        O  0.74894448  0.27990902  0.27300515    -0.67300
O559        O  0.73209528  0.21673491  0.41325920    -0.86600
C560        C  0.75535990  0.25701023  0.25861161     0.85700
C561        C  0.66471053  0.25822867  0.21469312     1.07200
H562        H  0.73530524  0.23009776  0.33375073     0.39000
O563        O  0.70857209  0.23134520  0.33942266    -1.09200
O564        O  0.65105501  0.25868213  0.38326660    -0.65900
Ni565      Ni  0.69967086  0.26632188  0.35802929     1.26300
O566        O  0.73046979  0.23855283  0.26048743    -0.66100
O567        O  0.72412823  0.26087151  0.40865388    -0.78400
C568        C  0.70239315  0.32218359  0.35294202     0.85100
O569        O  0.69112911  0.30237835  0.37335121    -0.65600
Ni570      Ni  0.69716292  0.20265389  0.37414271     1.27400
Ni571      Ni  0.68217456  0.23463053  0.28939473     1.26100
H572        H  0.65023533  0.27478757  0.30916498     0.39600
O573        O  0.58727499  0.43221841  0.80928668    -0.80400
O574        O  0.60069868  0.55605829  0.78029410    -0.65000
O575        O  0.61913353  0.48369105  0.80701493    -1.11700
C576        C  0.55321242  0.50908763  0.92670512     1.06500
O577        O  0.62498313  0.56705326  0.83959298    -0.78300
O578        O  0.63506466  0.53521174  0.90408875    -0.65800
Ni579      Ni  0.60743243  0.45612593  0.76926732     1.34900
C580        C  0.65106367  0.51284965  0.90512658     0.85300
O581        O  0.63768408  0.51814551  0.74340813    -0.78800
O582        O  0.62704097  0.47615366  0.72452278    -0.89100
C583        C  0.61717314  0.57273569  0.80309982     0.84800
O584        O  0.55767594  0.46765615  0.75713076    -0.67300
O585        O  0.55971418  0.53289440  0.91606764    -0.86600
C586        C  0.54607675  0.49065376  0.74850451     0.85700
C587        C  0.63842187  0.49963090  0.71757348     1.07200
H588        H  0.55458105  0.52115768  0.83419499     0.39000
O589        O  0.58121471  0.52031538  0.84060429    -1.09200
O590        O  0.63836290  0.49272902  0.88605508    -0.65900
Ni591      Ni  0.59177370  0.48513227  0.85711805     1.26300
O592        O  0.56328574  0.51176101  0.75995453    -0.66100
O593        O  0.56416388  0.48867178  0.90696547    -0.78400
C594        C  0.59354700  0.42939662  0.84696536     0.85100
O595        O  0.60129812  0.44889197  0.87007650    -0.65600
Ni596      Ni  0.59183017  0.54883572  0.87668167     1.27400
Ni597      Ni  0.60897455  0.51949167  0.79158610     1.26100
H598        H  0.64587097  0.48244994  0.81276542     0.39600
O599        O  0.57813079  0.31893591  0.94312955    -0.80400
O600        O  0.61227195  0.19721910  0.97979860    -0.65000
O601        O  0.61743595  0.27073580  0.95188900    -1.11700
C602        C  0.55595484  0.23955704  0.83210940     1.06500
O603        O  0.63445493  0.18769761  0.91890825    -0.78300
O604        O  0.63741095  0.21813715  0.85187170    -0.65800
Ni605      Ni  0.59351302  0.29575346  0.98655199     1.34900
C606        C  0.65315903  0.24073536  0.85127455     0.85300
O607        O  0.64051420  0.24067737  0.01761201    -0.78800
O608        O  0.60818783  0.27689405  0.03437175    -0.89100
C609        C  0.62727101  0.18095910  0.95513708     0.84800
O610        O  0.54557028  0.27798448  0.98588335    -0.67300
O611        O  0.56140919  0.21594463  0.84440430    -0.86600
C612        C  0.54000663  0.25493176  0.00003799     0.85700
C613        C  0.63071647  0.25822929  0.04328443     1.07200
H614        H  0.55960110  0.22887358  0.92472253     0.39000
O615        O  0.58616953  0.23076423  0.91849098    -1.09200
O616        O  0.64185044  0.25968643  0.87388913    -0.65900
Ni617      Ni  0.59357439  0.26597121  0.90047033     1.26300
O618        O  0.56551932  0.23712623  0.99799442    -0.66100
O619        O  0.56830237  0.26019667  0.85018090    -0.78400
C620        C  0.58972603  0.32156128  0.90686669     0.85100
O621        O  0.60078176  0.30209787  0.88568248    -0.65600
Ni622      Ni  0.59749528  0.20251557  0.88271783     1.27400
Ni623      Ni  0.61349237  0.23449959  0.96816289     1.26100
H624        H  0.64373601  0.27556061  0.94850999     0.39600
O625        O  0.09354807  0.92534487  0.80641950    -0.80400
O626        O  0.10558934  0.05067686  0.77813970    -0.65000
O627        O  0.12210979  0.97760997  0.80320143    -1.11700
C628        C  0.05755138  0.00239912  0.92424294     1.06500
O629        O  0.12916231  0.06102699  0.83815653    -0.78300
O630        O  0.13907878  0.02858397  0.90273903    -0.65800
Ni631      Ni  0.10413472  0.95156929  0.76562633     1.34900
C632        C  0.15428276  0.00593188  0.90395658     0.85300
O633        O  0.14056617  0.01149883  0.73973517    -0.78800
O634        O  0.11511736  0.97314648  0.71908832    -0.89100
C635        C  0.12014436  0.06750565  0.80228279     0.84800
O636        O  0.05370155  0.96473833  0.76853339    -0.67300
O637        O  0.06387455  0.02641994  0.91445563    -0.86600
C638        C  0.04445282  0.98684321  0.75345329     0.85700
C639        C  0.13291327  0.99461828  0.71242871     1.07200
H640        H  0.05878881  0.01570128  0.83201542     0.39000
O641        O  0.08547849  0.01467074  0.83813647    -1.09200
O642        O  0.14237033  0.98655429  0.88259585    -0.65900
Ni643      Ni  0.09562162  0.97934945  0.85386458     1.26300
O644        O  0.06590114  0.00716742  0.75790341    -0.66100
O645        O  0.06853583  0.98245414  0.90370583    -0.78400
C646        C  0.09950201  0.92344480  0.84427810     0.85100
O647        O  0.10497261  0.94334080  0.86707633    -0.65600
Ni648      Ni  0.09614596  0.04268167  0.87513575     1.27400
Ni649      Ni  0.11277862  0.01377260  0.78867870     1.26100
H650        H  0.14887103  0.97513313  0.80761568     0.39600
O651        O  0.09472210  0.81534847  0.94950973    -0.80400
O652        O  0.09701997  0.68947505  0.97299771    -0.65000
O653        O  0.11960911  0.76242401  0.95204144    -1.11700
C654        C  0.05340429  0.74242240  0.82912318     1.06500
O655        O  0.11910567  0.67956347  0.91209433    -0.78300
O656        O  0.13049082  0.71262531  0.84870594    -0.65800
Ni657      Ni  0.10447065  0.78877191  0.99019283     1.34900
C658        C  0.15040121  0.73355941  0.85079101     0.85300
O659        O  0.13385107  0.72680326  0.01441367    -0.78800
O660        O  0.11402295  0.76625829  0.03637998    -0.89100
C661        C  0.11332410  0.67346067  0.94896982     0.84800
O662        O  0.05295291  0.77790252  0.98848452    -0.67300
O663        O  0.05536421  0.71808456  0.83895066    -0.86600
C664        C  0.04127809  0.75572641  0.00138684     0.85700
C665        C  0.12819202  0.74352129  0.04247169     1.07200
H666        H  0.05311471  0.72806901  0.92069618     0.39000
O667        O  0.07988795  0.72767202  0.91487020    -1.09200
O668        O  0.14145523  0.75301859  0.87347069    -0.65900
Ni669      Ni  0.09460354  0.76253292  0.90040040     1.26300
O670        O  0.05993722  0.73437834  0.99524828    -0.66100
O671        O  0.06838710  0.76137743  0.84935854    -0.78400
C672        C  0.10186122  0.81779354  0.91187568     0.85100
O673        O  0.10852247  0.79816446  0.88897981    -0.65600
Ni674      Ni  0.08681443  0.69984424  0.87681028     1.27400
Ni675      Ni  0.10661512  0.72651477  0.96479587     1.26100
H676        H  0.14667861  0.76376265  0.94840284     0.39600
O677        O  0.21068320  0.93139899  0.43717279    -0.80400
O678        O  0.18036455  0.05181912  0.47901862    -0.65000
O679        O  0.16979683  0.97854481  0.44977553    -1.11700
C680        C  0.22335563  0.00983329  0.32632736     1.06500
O681        O  0.15133989  0.06120737  0.42167952    -0.78300
O682        O  0.14212451  0.03111681  0.35448579    -0.65800
Ni683      Ni  0.19116005  0.95130611  0.48226702     1.34900
C684        C  0.12791181  0.00808700  0.35308556     0.85300
O685        O  0.15484089  0.00914704  0.51883880    -0.78800
O686        O  0.17357631  0.96758924  0.53098103    -0.89100
C687        C  0.16228943  0.06800778  0.45691785     0.84800
O688        O  0.23955401  0.96746797  0.48974727    -0.67300
O689        O  0.21641011  0.03330984  0.33878598    -0.86600
C690        C  0.24835913  0.99122142  0.49850833     0.85700
C691        C  0.16057290  0.98975959  0.54255176     1.07200
H692        H  0.22640872  0.02026465  0.41856120     0.39000
O693        O  0.19944217  0.01822012  0.41481611    -1.09200
O694        O  0.14129435  0.98886922  0.37333396    -0.65900
Ni695      Ni  0.19090291  0.98303358  0.39693873     1.26300
O696        O  0.22629313  0.01063129  0.49182964    -0.66100
O697        O  0.21360397  0.98893630  0.34529658    -0.78400
C698        C  0.19597156  0.92784517  0.40248335     0.85100
O699        O  0.18285441  0.94690223  0.38214918    -0.65600
Ni700      Ni  0.18451112  0.04658663  0.38125752     1.27400
Ni701      Ni  0.17664879  0.01457986  0.46678502     1.26100
H702        H  0.14297732  0.97503784  0.44741360     0.39600
O703        O  0.19109983  0.81705830  0.30297861    -0.80400
O704        O  0.18855038  0.69111083  0.27867907    -0.65000
O705        O  0.16952854  0.76425535  0.30200418    -1.11700
C706        C  0.22865497  0.73953285  0.42637959     1.06500
O707        O  0.15757541  0.68248251  0.33504061    -0.78300
O708        O  0.14467926  0.71591407  0.39833656    -0.65800
Ni709      Ni  0.18580640  0.78974585  0.26303370     1.34900
C710        C  0.13262987  0.73943285  0.40122867     0.85300
O711        O  0.15472311  0.72919395  0.23786071    -0.78800
O712        O  0.18049420  0.76670564  0.21637394    -0.89100
C713        C  0.16923850  0.67527088  0.30028408     0.84800
O714        O  0.23703223  0.77949828  0.26989509    -0.67300
O715        O  0.21886019  0.71591306  0.41707496    -0.86600
C716        C  0.24912941  0.75742937  0.25697236     0.85700
C717        C  0.16372547  0.74484065  0.20974681     1.07200
H718        H  0.23114585  0.72547818  0.33538789     0.39000
O719        O  0.20424437  0.72755874  0.33940070    -1.09200
O720        O  0.14798187  0.75863686  0.38236368    -0.65900
Ni721      Ni  0.19559870  0.76337284  0.35373393     1.26300
O722        O  0.22941075  0.73603634  0.26098539    -0.66100
O723        O  0.22169414  0.75990466  0.40469071    -0.78400
C724        C  0.19081868  0.81984216  0.34122985     0.85100
O725        O  0.18938000  0.80029946  0.36536392    -0.65600
Ni726      Ni  0.18868375  0.70025523  0.37504354     1.27400
Ni727      Ni  0.18039855  0.72814389  0.28824326     1.26100
H728        H  0.14261974  0.76610881  0.30611497     0.39600
O729        O  0.88456437  0.31424996  0.66789370    -0.80400
O730        O  0.85686763  0.19816377  0.63844419    -0.65000
O731        O  0.83763903  0.26997019  0.66412464    -1.11700
C732        C  0.87043955  0.24959130  0.79617140     1.06500
O733        O  0.83261591  0.18238946  0.69539599    -0.78300
O734        O  0.79628125  0.22117463  0.73777896    -0.65800
Ni735      Ni  0.85216663  0.29732185  0.62849335     1.34900
C736        C  0.78661390  0.24468844  0.74668752     0.85300
O737        O  0.82590184  0.23770596  0.59726509    -0.78800
O738        O  0.82058637  0.28174885  0.58754855    -0.89100
C739        C  0.84460696  0.17903045  0.65945525     0.84800
O740        O  0.89508371  0.28170941  0.60298135    -0.67300
O741        O  0.85805738  0.22693330  0.78565970    -0.86600
C742        C  0.91034037  0.25909416  0.60402666     0.85700
C743        C  0.81492990  0.25767899  0.57702834     1.07200
H744        H  0.89492854  0.22987497  0.70254588     0.39000
O745        O  0.86795461  0.23274632  0.70367580    -1.09200
O746        O  0.80856713  0.26452822  0.74069356    -0.65900
Ni747      Ni  0.85891541  0.26926300  0.71692539     1.26300
O748        O  0.89768686  0.24061433  0.62660162    -0.66100
O749        O  0.87921048  0.26722101  0.77041407    -0.78400
C750        C  0.87324783  0.32195366  0.70253606     0.85100
O751        O  0.85359879  0.30671902  0.72489665    -0.65600
Ni752      Ni  0.84610971  0.20673081  0.73826661     1.27400
Ni753      Ni  0.84780465  0.23448625  0.64988769     1.26100
H754        H  0.81051323  0.27138198  0.66683441     0.39600
O755        O  0.88266300  0.93651215  0.58372383    -0.80400
O756        O  0.85666034  0.05185174  0.61882819    -0.65000
O757        O  0.83640290  0.98060894  0.58818077    -1.11700
C758        C  0.87263408  0.00498295  0.45970225     1.06500
O759        O  0.83442922  0.06910908  0.56137297    -0.78300
O760        O  0.79430265  0.02889054  0.52495743    -0.65800
Ni761      Ni  0.84927326  0.95238389  0.62273561     1.34900
C762        C  0.78580481  0.00635761  0.51025233     0.85300
O763        O  0.82485572  0.01084283  0.65775195    -0.78800
O764        O  0.81722117  0.96680244  0.66366482    -0.89100
C765        C  0.84607322  0.07139008  0.59766737     0.84800
O766        O  0.89184884  0.96729229  0.64992587    -0.67300
O767        O  0.85090117  0.02380387  0.46985818    -0.86600
C768        C  0.91020455  0.98880432  0.64737513     0.85700
C769        C  0.81225307  0.99044137  0.67624889     1.07200
H770        H  0.89432046  0.02308986  0.55284875     0.39000
O771        O  0.86751980  0.01920569  0.55174920    -1.09200
O772        O  0.80972421  0.98739464  0.51077799    -0.65900
Ni773      Ni  0.85971161  0.98302102  0.53640133     1.26300
O774        O  0.89768423  0.00839308  0.62708354    -0.66100
O775        O  0.88350723  0.98761975  0.48484887    -0.78400
C776        C  0.87331657  0.92993414  0.54787390     0.85100
O777        O  0.85517967  0.94579986  0.52537381    -0.65600
Ni778      Ni  0.84315087  0.04437516  0.51805722     1.27400
Ni779      Ni  0.84722663  0.01567370  0.60523608     1.26100
H780        H  0.80934858  0.97937699  0.58437156     0.39600
O781        O  0.91639426  0.31590292  0.09641481    -0.80400
O782        O  0.93686772  0.19698929  0.11325478    -0.65000
O783        O  0.95866820  0.26914305  0.09070393    -1.11700
C784        C  0.90098180  0.25137747  0.96547275     1.06500
O785        O  0.95570583  0.18307982  0.05265191    -0.78300
O786        O  0.98318327  0.22059730  0.00127146    -0.65800
Ni787      Ni  0.95005732  0.29573762  0.13045294     1.34900
C788        C  0.99527295  0.24407682  0.99657197     0.85300
O789        O  0.97471234  0.23423241  0.15361282    -0.78800
O790        O  0.98281312  0.27757713  0.16735827    -0.89100
C791        C  0.94681498  0.17863914  0.08935561     0.84800
O792        O  0.90737152  0.28098183  0.15815024    -0.67300
O793        O  0.91271649  0.22790963  0.97111940    -0.86600
C794        C  0.89035459  0.25882317  0.15658997     0.85700
C795        C  0.98768503  0.25311550  0.17533398     1.07200
H796        H  0.89442968  0.23180274  0.05809815     0.39000
O797        O  0.92122366  0.23366455  0.05305914    -1.09200
O798        O  0.97769191  0.26450719  0.00981380    -0.65900
Ni799      Ni  0.93102521  0.27011785  0.04110634     1.26300
O800        O  0.90083007  0.24022249  0.13295334    -0.66100
O801        O  0.90306847  0.26973029  0.99179979    -0.78400
C802        C  0.92018476  0.32268692  0.05944418     0.85100
O803        O  0.93723774  0.30769533  0.03436319    -0.65600
Ni804      Ni  0.93406694  0.20733017  0.01394369     1.27400
Ni805      Ni  0.94743753  0.23338098  0.10365590     1.26100
H806        H  0.98532377  0.27004860  0.08439277     0.39600
O807        O  0.90239986  0.93721813  0.16408996    -0.80400
O808        O  0.93986052  0.05154419  0.13157521    -0.65000
O809        O  0.95190176  0.98018917  0.16428177    -1.11700
C810        C  0.90541420  0.00667391  0.28825503     1.06500
O811        O  0.95808172  0.06910369  0.19031772    -0.78300
O812        O  0.99077893  0.02823899  0.23306835    -0.65800
Ni813      Ni  0.93966654  0.95210125  0.12823458     1.34900
C814        C  0.99640689  0.00517713  0.24705242     0.85300
O815        O  0.97170409  0.00960264  0.09654332    -0.78800
O816        O  0.97596961  0.96530909  0.09013503    -0.89100
C817        C  0.94951937  0.07138977  0.15297359     0.84800
O818        O  0.90012692  0.96804685  0.09737843    -0.67300
O819        O  0.92787706  0.02570389  0.28015023    -0.86600
C820        C  0.88533937  0.99084065  0.09706578     0.85700
C821        C  0.98278402  0.98881611  0.07808551     1.07200
H822        H  0.89418425  0.02450223  0.19292364     0.39000
O823        O  0.92041684  0.02001564  0.19716092    -1.09200
O824        O  0.97131722  0.98693338  0.24400517    -0.65900
Ni825      Ni  0.92395995  0.98379454  0.21325167     1.26300
O826        O  0.89762421  0.00969309  0.11933689    -0.66100
O827        O  0.89596866  0.98938233  0.26197774    -0.78400
C828        C  0.90845754  0.93084149  0.20073373     0.85100
O829        O  0.92512451  0.94671632  0.22487524    -0.65600
Ni830      Ni  0.94271908  0.04521884  0.23295352     1.27400
Ni831      Ni  0.94567874  0.01544688  0.14649875     1.26100
H832        H  0.97832692  0.97807864  0.17094145     0.39600
C833        C  0.95066052  0.09842594  0.13436682    -0.04800
C834        C  0.92336804  0.10589741  0.10498094    -0.01900
C835        C  0.92260015  0.13203684  0.09008867     0.03100
C836        C  0.94862714  0.15111609  0.10453205    -0.04800
C837        C  0.97620027  0.14382789  0.13317607    -0.01900
C838        C  0.97751375  0.11761777  0.14777508     0.03100
C839        C  0.89470695  0.08726009  0.09113646     0.37700
C840        C  0.00373914  0.16326665  0.14709987     0.37700
C841        C  0.00720754  0.11046295  0.17601818     0.36100
C842        C  0.89394389  0.13966860  0.06087682     0.36100
N843        N  0.03086862  0.10480046  0.19859101    -0.38700
N844        N  0.87110704  0.14587117  0.03768343    -0.38700
N845        N  0.02575519  0.17873683  0.15814829    -0.38100
N846        N  0.87166851  0.07261952  0.07984035    -0.38100
C847        C  0.89237844  0.00500747  0.33097749    -0.04800
C848        C  0.88932071  0.02883416  0.35332485    -0.01900
C849        C  0.88749998  0.02834032  0.39560657     0.03100
C850        C  0.88341586  0.00403018  0.41628208    -0.04800
C851        C  0.88448585  0.98005594  0.39403956    -0.01900
C852        C  0.88865677  0.98053910  0.35138249     0.03100
C853        C  0.88681332  0.05420191  0.33287611     0.37700
C854        C  0.88161110  0.95488216  0.41470874     0.37700
C855        C  0.88908946  0.95582223  0.32891115     0.36100
C856        C  0.89116022  0.05318890  0.41779733     0.36100
N857        N  0.88944041  0.93598222  0.31129075    -0.38700
N858        N  0.89410418  0.07293949  0.43542216    -0.38700
N859        N  0.87945723  0.93469456  0.43095271    -0.38100
N860        N  0.88466345  0.07440745  0.31674590    -0.38100
C861        C  0.88542537  0.25703775  0.92507710    -0.04800
C862        C  0.85718776  0.24024395  0.90936783    -0.01900
C863        C  0.84988264  0.23979425  0.86762565     0.03100
C864        C  0.87271918  0.25499880  0.84069721    -0.04800
C865        C  0.89725154  0.27454064  0.85730116    -0.01900
C866        C  0.90340044  0.27560537  0.89960090     0.03100
C867        C  0.83659895  0.22253088  0.93615303     0.37700
C868        C  0.91715297  0.29305438  0.83142520     0.37700
C869        C  0.93107815  0.29397756  0.91632236     0.36100
C870        C  0.81845160  0.22363452  0.85309376     0.36100
N871        N  0.95331748  0.30852205  0.92958001    -0.38700
N872        N  0.79340321  0.21068602  0.84185049    -0.38700
N873        N  0.93286959  0.30813284  0.81113429    -0.38100
N874        N  0.82037140  0.20824720  0.95732081    -0.38100
C875        C  0.84415668  0.15164756  0.64214272    -0.04800
C876        C  0.81476307  0.13358205  0.65239134    -0.01900
C877        C  0.81614319  0.10706248  0.63898992     0.03100
C878        C  0.84661228  0.09831963  0.61516609    -0.04800
C879        C  0.87522736  0.11631424  0.60364549    -0.01900
C880        C  0.87411229  0.14283879  0.61700602     0.03100
C881        C  0.78203069  0.14233874  0.67517348     0.37700
C882        C  0.90584278  0.10751092  0.57767275     0.37700
C883        C  0.90425184  0.16077361  0.60502339     0.36100
C884        C  0.78541916  0.08890885  0.64832197     0.36100
N885        N  0.92822299  0.17499087  0.59502842    -0.38700
N886        N  0.76089925  0.07439583  0.65544150    -0.38700
N887        N  0.93023226  0.10058384  0.55688858    -0.38100
N888        N  0.75575328  0.14909777  0.69325619    -0.38100
C889        C  0.09554109  0.00378886  0.32432863    -0.04800
C890        C  0.09729673  0.01492991  0.28492637    -0.01900
C891        C  0.06607836  0.01313464  0.25829803     0.03100
C892        C  0.03220305  0.00061730  0.27059122    -0.04800
C893        C  0.03181176  0.98717117  0.30832908    -0.01900
C894        C  0.06311823  0.98901028  0.33520260     0.03100
C895        C  0.13135516  0.02842330  0.27134769     0.37700
C896        C  0.99918400  0.97170982  0.32035937     0.37700
C897        C  0.06092632  0.97694651  0.37496332     0.36100
C898        C  0.06918350  0.02375378  0.21761519     0.36100
N899        N  0.05900401  0.96737447  0.40669828    -0.38700
N900        N  0.07172909  0.03204692  0.18509327    -0.38700
N901        N  0.97393093  0.95873265  0.33053132    -0.38100
N902        N  0.15830462  0.03938653  0.26049185    -0.38100
C903        C  0.19435706  0.90056526  0.38610436    -0.04800
C904        C  0.17238996  0.88129553  0.40628092    -0.01900
C905        C  0.17103104  0.85499756  0.39181299     0.03100
C906        C  0.19255933  0.84750372  0.35751317    -0.04800
C907        C  0.21494887  0.86701357  0.33761611    -0.01900
C908        C  0.21549917  0.89341808  0.35170571     0.03100
C909        C  0.15039042  0.88878505  0.44162495     0.37700
C910        C  0.23836735  0.86001380  0.30310369     0.37700
C911        C  0.23896428  0.91305167  0.33166868     0.36100
C912        C  0.14586827  0.83617830  0.41121518     0.36100
N913        N  0.25784226  0.92860745  0.31571698    -0.38700
N914        N  0.12542363  0.82144047  0.42675969    -0.38700
N915        N  0.25691722  0.85449608  0.27548075    -0.38100
N916        N  0.13301220  0.89492620  0.46980611    -0.38100
C917        C  0.13780989  0.73676423  0.08446357    -0.04800
C918        C  0.17578961  0.73722461  0.09698372    -0.01900
C919        C  0.18440257  0.73654136  0.13853449     0.03100
C920        C  0.15504819  0.73773724  0.16745875    -0.04800
C921        C  0.11723206  0.73451851  0.15493835    -0.01900
C922        C  0.10880299  0.73300007  0.11331896     0.03100
C923        C  0.20587088  0.73931621  0.06725723     0.37700
C924        C  0.08699472  0.73384033  0.18466493     0.37700
C925        C  0.07073449  0.72635284  0.10052897     0.36100
C926        C  0.22319897  0.73285429  0.15109413     0.36100
N927        N  0.04037494  0.71987946  0.09172146    -0.38700
N928        N  0.25432598  0.72860399  0.15944623    -0.38700
N929        N  0.06298729  0.73336836  0.20847873    -0.38100
N930        N  0.22984924  0.74107254  0.04355581    -0.38100
C931        C  0.03741230  0.99757952  0.96262539    -0.04800
C932        C  0.00373063  0.01127792  0.97109560    -0.01900
C933        C  0.98664108  0.00895295  0.00931983     0.03100
C934        C  0.00256095  0.99225302  0.03903545    -0.04800
C935        C  0.03576830  0.97795484  0.03018243    -0.01900
C936        C  0.05326747  0.98069915  0.99209146     0.03100
C937        C  0.98567468  0.02691316  0.93983570     0.37700
C938        C  0.05273992  0.96111058  0.06061349     0.37700
C939        C  0.08820982  0.96673042  0.98373382     0.36100
C940        C  0.95188597  0.02320835  0.01738273     0.36100
N941        N  0.11598627  0.95557375  0.97689936    -0.38700
N942        N  0.92426057  0.03464416  0.02374419    -0.38700
N943        N  0.06643529  0.94763135  0.08470921    -0.38100
N944        N  0.97104978  0.03920098  0.91488286    -0.38100
C945        C  0.94732237  0.99002514  0.67032213    -0.04800
C946        C  0.95971700  0.01308582  0.69121342    -0.01900
C947        C  0.98997507  0.01190836  0.71971264     0.03100
C948        C  0.01002048  0.98803538  0.72613427    -0.04800
C949        C  0.99917405  0.96545738  0.70293980    -0.01900
C950        C  0.96849565  0.96649392  0.67549616     0.03100
C951        C  0.94185507  0.03825005  0.68336780     0.37700
C952        C  0.01975231  0.94075092  0.70628833     0.37700
C953        C  0.95955119  0.94295441  0.65180457     0.36100
C954        C  0.99956325  0.03525385  0.74336717     0.36100
N955        N  0.95276994  0.92389380  0.63360215    -0.38700
N956        N  0.00727996  0.05383037  0.76233009    -0.38700
N957        N  0.03574254  0.92092941  0.70890200    -0.38100
N958        N  0.92847746  0.05861350  0.67681092    -0.38100
C959        C  0.14408109  0.99941179  0.67049593    -0.04800
C960        C  0.17690995  0.98717630  0.65609039    -0.01900
C961        C  0.18207918  0.98372461  0.61428031     0.03100
C962        C  0.15461973  0.99334407  0.58653947    -0.04800
C963        C  0.12269944  0.00698101  0.60123411    -0.01900
C964        C  0.11775247  0.01029445  0.64325012     0.03100
C965        C  0.20485220  0.97746764  0.68465112     0.37700
C966        C  0.09344944  0.01568625  0.57350013     0.37700
C967        C  0.08530791  0.02460831  0.65845046     0.36100
C968        C  0.21537323  0.96960713  0.60049253     0.36100
N969        N  0.05963302  0.03652477  0.66998311    -0.38700
N970        N  0.24180376  0.95799655  0.59017445    -0.38700
N971        N  0.06999849  0.02233964  0.55133303    -0.38100
N972        N  0.22710622  0.96991571  0.70752618    -0.38100
C973        C  0.10020449  0.89662335  0.86209133    -0.04800
C974        C  0.06797906  0.88634002  0.88177686    -0.01900
C975        C  0.06842768  0.86046127  0.89764268     0.03100
C976        C  0.10125968  0.84475971  0.89416282    -0.04800
C977        C  0.13346559  0.85507842  0.87424704    -0.01900
C978        C  0.13274625  0.88081214  0.85785293     0.03100
C979        C  0.03396128  0.90212860  0.88453927     0.37700
C980        C  0.16783731  0.83963482  0.87185816     0.37700
C981        C  0.16551046  0.89107153  0.83647991     0.36100
C982        C  0.03460174  0.84962552  0.91629608     0.36100
N983        N  0.19152143  0.89924514  0.81921969    -0.38700
N984        N  0.00764172  0.84085794  0.93104087    -0.38700
N985        N  0.19538098  0.82743955  0.87004293    -0.38100
N986        N  0.00677879  0.91469554  0.88652226    -0.38100
C987        C  0.68559184  0.24471914  0.82192561    -0.04800
C988        C  0.68616504  0.23076079  0.78428691    -0.01900
C989        C  0.71787821  0.23239128  0.75818411     0.03100
C990        C  0.74954659  0.24826788  0.76852329    -0.04800
C991        C  0.74748057  0.26417713  0.80403246    -0.01900
C992        C  0.71608155  0.26216255  0.83070217     0.03100
C993        C  0.65389236  0.21480676  0.77158449     0.37700
C994        C  0.77862577  0.28167006  0.81476266     0.37700
C995        C  0.71651855  0.27703838  0.86838952     0.36100
C996        C  0.71772850  0.21768850  0.72025849     0.36100
N997        N  0.71701884  0.28887765  0.89849127    -0.38700
N998        N  0.71750007  0.20596971  0.69003993    -0.38700
N999        N  0.80324426  0.29577771  0.82350954    -0.38100
N1000       N  0.62827141  0.20206349  0.76131153    -0.38100
C1001       C  0.59164187  0.40207456  0.86370256    -0.04800
C1002       C  0.56063171  0.38519988  0.85424323    -0.01900
C1003       C  0.56037838  0.35858464  0.86722167     0.03100
C1004       C  0.59098648  0.34864032  0.88978541    -0.04800
C1005       C  0.62217724  0.36526385  0.89867514    -0.01900
C1006       C  0.62244780  0.39188914  0.88596351     0.03100
C1007       C  0.52851329  0.39535315  0.83188559     0.37700
C1008       C  0.65457176  0.35466905  0.92006522     0.37700
C1009       C  0.65526194  0.40842286  0.89433936     0.36100
C1010       C  0.52873553  0.34135225  0.85720132     0.36100
N1011       N  0.68150329  0.42155707  0.90094131    -0.38700
N1012       N  0.50357731  0.32756946  0.84901209    -0.38700
N1013       N  0.68050720  0.34611869  0.93681819    -0.38100
N1014       N  0.50292571  0.40349077  0.81404653    -0.38100
C1015       C  0.75702950  0.24446062  0.46472097    -0.04800
C1016       C  0.74047301  0.26045512  0.49507884    -0.01900
C1017       C  0.75949678  0.26477107  0.53186252     0.03100
C1018       C  0.79467608  0.25262510  0.53884899    -0.04800
C1019       C  0.81084941  0.23611227  0.50892700    -0.01900
C1020       C  0.79243471  0.23255230  0.47149209     0.03100
C1021       C  0.70350033  0.27220598  0.48891461     0.37700
C1022       C  0.84689960  0.22332476  0.51613162     0.37700
C1023       C  0.81097405  0.21797921  0.43920628     0.36100
C1024       C  0.74226298  0.28117658  0.56292525     0.36100
N1025       N  0.82603089  0.20664064  0.41336238    -0.38700
N1026       N  0.72844495  0.29432783  0.58751644    -0.38700
N1027       N  0.87548239  0.21296341  0.52194953    -0.38100
N1028       N  0.67412760  0.28166553  0.48404950    -0.38100
C1029       C  0.79175276  0.25279013  0.23571797    -0.04800
C1030       C  0.79160121  0.24051754  0.19691356    -0.01900
C1031       C  0.82370396  0.24200231  0.17124369     0.03100
C1032       C  0.85718511  0.25475812  0.18455152    -0.04800
C1033       C  0.85885372  0.26404566  0.22521869    -0.01900
C1034       C  0.82619449  0.26373933  0.25013542     0.03100
C1035       C  0.75821578  0.22678573  0.18237540     0.37700
C1036       C  0.89468297  0.27289936  0.24221958     0.37700
C1037       C  0.82830790  0.27431210  0.29105656     0.36100
C1038       C  0.82153352  0.23122117  0.13045979     0.36100
N1039       N  0.82995601  0.28275432  0.32368809    -0.38700
N1040       N  0.81968011  0.22257502  0.09796900    -0.38700
N1041       N  0.92333038  0.27960768  0.25598574    -0.38100
N1042       N  0.73231739  0.21519769  0.17012985    -0.38100
C1043       C  0.64323743  0.25721412  0.08631276    -0.04800
C1044       C  0.64610838  0.28130312  0.10823132    -0.01900
C1045       C  0.64817277  0.28120601  0.15058444     0.03100
C1046       C  0.65194128  0.25712327  0.17176873    -0.04800
C1047       C  0.64894496  0.23294998  0.15019317    -0.01900
C1048       C  0.64602146  0.23299085  0.10743455     0.03100
C1049       C  0.64815639  0.30654422  0.08732276     0.37700
C1050       C  0.64786608  0.20800408  0.17170768     0.37700
C1051       C  0.64558645  0.20801447  0.08562014     0.36100
C1052       C  0.64429676  0.30610794  0.17244439     0.36100
N1053       N  0.64512443  0.18796443  0.06856888    -0.38700
N1054       N  0.64087976  0.32587418  0.18984279    -0.38700
N1055       N  0.64662532  0.18806590  0.18873774    -0.38100
N1056       N  0.64987152  0.32667721  0.07087322    -0.38100
C1057       C  0.65118360  0.50546163  0.67630201    -0.04800
C1058       C  0.62975243  0.52240544  0.65141431    -0.01900
C1059       C  0.63437634  0.52158415  0.60895031     0.03100
C1060       C  0.66155759  0.50450585  0.59170685    -0.04800
C1061       C  0.68660902  0.49052468  0.61783732    -0.01900
C1062       C  0.68070954  0.49059736  0.65978344     0.03100
C1063       C  0.60153896  0.53959486  0.66930589     0.37700
C1064       C  0.71838990  0.47546925  0.60224275     0.37700
C1065       C  0.70446829  0.47473221  0.68607199     0.36100
C1066       C  0.60954012  0.53700723  0.58338633     0.36100
N1067       N  0.72335873  0.46200374  0.70686003    -0.38700
N1068       N  0.58957671  0.54930631  0.56313556    -0.38700
N1069       N  0.74361318  0.46315241  0.59047039    -0.38100
N1070       N  0.57929840  0.55350658  0.68356724    -0.38100
C1071       C  0.70118725  0.34967449  0.37058257    -0.04800
C1072       C  0.67094326  0.35770938  0.39603442    -0.01900
C1073       C  0.66750497  0.38451050  0.40807004     0.03100
C1074       C  0.69412074  0.40359419  0.39507274    -0.04800
C1075       C  0.72457322  0.39570416  0.37049261    -0.01900
C1076       C  0.72852710  0.36892144  0.35886681     0.03100
C1077       C  0.64280919  0.33869099  0.40955650     0.37700
C1078       C  0.75214315  0.41526867  0.35745757     0.37700
C1079       C  0.76187710  0.36113999  0.33627685     0.36100
C1080       C  0.63604760  0.39262503  0.43337727     0.36100
N1081       N  0.78858653  0.35492606  0.31845387    -0.38700
N1082       N  0.61084770  0.39910016  0.45338257    -0.38700
N1083       N  0.77394426  0.43097531  0.34701245    -0.38100
N1084       N  0.62042256  0.32360363  0.42071792    -0.38100
C1085       C  0.90499592  0.84932581  0.53479148    -0.04800
C1086       C  0.93329779  0.86909330  0.53546590    -0.01900
C1087       C  0.92310817  0.89603413  0.53485824     0.03100
C1088       C  0.88458563  0.90328193  0.53359434    -0.04800
C1089       C  0.85680496  0.88360825  0.52714920    -0.01900
C1090       C  0.86703143  0.85664406  0.52765204     0.03100
C1091       C  0.97270090  0.86170525  0.53929462     0.37700
C1092       C  0.81741577  0.89103745  0.52300003     0.37700
C1093       C  0.83831922  0.83655726  0.52118321     0.36100
C1094       C  0.95214021  0.91637929  0.53706322     0.36100
N1095       N  0.81475285  0.82106452  0.51515829    -0.38700
N1096       N  0.97529956  0.93262448  0.53876182    -0.38700
N1097       N  0.78602963  0.89703824  0.51965778    -0.38100
N1098       N  0.00412100  0.85570624  0.54218166    -0.38100
C1099       C  0.03401777  0.74873455  0.79084099    -0.04800
C1100       C  0.04987290  0.74018468  0.75382810    -0.01900
C1101       C  0.03166931  0.74594622  0.71700965     0.03100
C1102       C  0.99645243  0.75892835  0.71711309    -0.04800
C1103       C  0.98041312  0.76726828  0.75421322    -0.01900
C1104       C  0.99972276  0.76280498  0.79096409     0.03100
C1105       C  0.08503688  0.72547793  0.75357879     0.37700
C1106       C  0.94310026  0.77904041  0.75478948     0.37700
C1107       C  0.98371247  0.77183720  0.82900729     0.36100
C1108       C  0.04967398  0.73903668  0.67897134     0.36100
N1109       N  0.97105953  0.77910702  0.85938430    -0.38700
N1110       N  0.06428880  0.73357570  0.64875158    -0.38700
N1111       N  0.91314582  0.78813588  0.75522311    -0.38100
N1112       N  0.11287256  0.71355572  0.75329517    -0.38100
C1113       C  0.03858630  0.75004803  0.48550536    -0.04800
C1114       C  0.04032088  0.76524423  0.44940355    -0.01900
C1115       C  0.07068174  0.76191719  0.42159906     0.03100
C1116       C  0.10072762  0.74447871  0.43049797    -0.04800
C1117       C  0.10102165  0.73190531  0.46890078    -0.01900
C1118       C  0.07022613  0.73451445  0.49584639     0.03100
C1119       C  0.00992632  0.78323546  0.43944516     0.37700
C1120       C  0.13326160  0.71620259  0.48128436     0.37700
C1121       C  0.07117034  0.72091863  0.53447237     0.36100
C1122       C  0.06948713  0.77507881  0.38267898     0.36100
N1123       N  0.07201086  0.70987423  0.56508194    -0.38700
N1124       N  0.06827628  0.78549678  0.35155085    -0.38700
N1125       N  0.15882126  0.70362674  0.49132753    -0.38100
N1126       N  0.98583764  0.79772094  0.43149858    -0.38100
C1127       C  0.88394710  0.34907058  0.71574132    -0.04800
C1128       C  0.85653015  0.36920054  0.71586977    -0.01900
C1129       C  0.86798578  0.39600463  0.71537015     0.03100
C1130       C  0.90687408  0.40276010  0.71542342    -0.04800
C1131       C  0.93397009  0.38272589  0.72073507    -0.01900
C1132       C  0.92258944  0.35589603  0.72015566     0.03100
C1133       C  0.81671725  0.36231827  0.71297562     0.37700
C1134       C  0.97375769  0.38961045  0.72372684     0.37700
C1135       C  0.95082488  0.33524544  0.72177195     0.36100
C1136       C  0.83981459  0.41667677  0.71300538     0.36100
N1137       N  0.97336001  0.31876992  0.72296833    -0.38700
N1138       N  0.81734841  0.43317187  0.71115521    -0.38700
N1139       N  0.00550638  0.39508691  0.72631221    -0.38100
N1140       N  0.78497738  0.35676470  0.71060927    -0.38100
C1141       C  0.78652514  0.50182759  0.52284375    -0.04800
C1142       C  0.81871794  0.48769301  0.51023532    -0.01900
C1143       C  0.85060266  0.48546096  0.53587792     0.03100
C1144       C  0.85112092  0.49752221  0.57488391    -0.04800
C1145       C  0.82037449  0.51388482  0.58590964    -0.01900
C1146       C  0.78851340  0.51631924  0.55980743     0.03100
C1147       C  0.81942557  0.47603888  0.46996866     0.37700
C1148       C  0.82054860  0.52728429  0.62488865     0.37700
C1149       C  0.75736151  0.53311529  0.57189571     0.36100
C1150       C  0.88326413  0.47096511  0.52139361     0.36100
N1151       N  0.73286912  0.54679895  0.58170930    -0.38700
N1152       N  0.90928070  0.45937749  0.50987881    -0.38700
N1153       N  0.82070269  0.53804122  0.65593870    -0.38100
N1154       N  0.82006106  0.46703961  0.43766405    -0.38100
C1155       C  0.94694437  0.65352910  0.61530389    -0.04800
C1156       C  0.92409871  0.63392180  0.59667574    -0.01900
C1157       C  0.92238510  0.60808985  0.61265724     0.03100
C1158       C  0.94500040  0.60113056  0.64644065    -0.04800
C1159       C  0.96854814  0.62084064  0.66448457    -0.01900
C1160       C  0.96873188  0.64698720  0.64954849     0.03100
C1161       C  0.90124987  0.64060303  0.56160447     0.37700
C1162       C  0.99368223  0.61427275  0.69773911     0.37700
C1163       C  0.99208952  0.66703160  0.66898810     0.36100
C1164       C  0.89567174  0.58926077  0.59538232     0.36100
N1165       N  0.01066570  0.68288895  0.68488020    -0.38700
N1166       N  0.87399008  0.57451732  0.58159247    -0.38700
N1167       N  0.01379937  0.60913628  0.72422747    -0.38100
N1168       N  0.88316652  0.64599186  0.53360200    -0.38100
C1169       C  0.87346354  0.40042484  0.04138817    -0.04800
C1170       C  0.90783432  0.39374388  0.02213828    -0.01900
C1171       C  0.92198106  0.36755564  0.02446269     0.03100
C1172       C  0.90194685  0.34803445  0.04653140    -0.04800
C1173       C  0.86539195  0.35418379  0.06135118    -0.01900
C1174       C  0.85162027  0.38027785  0.05944875     0.03100
C1175       C  0.92987788  0.41426536  0.00249639     0.37700
C1176       C  0.84199718  0.33367433  0.07931445     0.37700
C1177       C  0.81598028  0.38688935  0.07871870     0.36100
C1178       C  0.95811919  0.36124348  0.00629568     0.36100
N1179       N  0.78776141  0.39235314  0.09430664    -0.38700
N1180       N  0.98689318  0.35623392  0.99153435    -0.38700
N1181       N  0.82329554  0.31729449  0.09348374    -0.38100
N1182       N  0.94745056  0.43067165  0.98684569    -0.38100
C1183       C  0.74470941  0.50352572  0.28982331    -0.04800
C1184       C  0.77558351  0.51978949  0.27826338    -0.01900
C1185       C  0.79337020  0.51598048  0.24051009     0.03100
C1186       C  0.78002685  0.49625574  0.21342229    -0.04800
C1187       C  0.75021961  0.47929016  0.22557332    -0.01900
C1188       C  0.73310404  0.48257635  0.26381422     0.03100
C1189       C  0.79048291  0.53971429  0.30593319     0.37700
C1190       C  0.73644649  0.45863762  0.19849895     0.37700
C1191       C  0.70276560  0.46466932  0.27555329     0.36100
C1192       C  0.82692055  0.53141623  0.23068401     0.36100
N1193       N  0.67861400  0.45039661  0.28489390    -0.38700
N1194       N  0.85381509  0.54353558  0.22292955    -0.38700
N1195       N  0.72540118  0.44207541  0.17715354    -0.38100
N1196       N  0.80249695  0.55559533  0.32789149    -0.38100
C1197       C  0.75186344  0.50989446  0.98081210    -0.04800
C1198       C  0.74762652  0.52950762  0.95044773    -0.01900
C1199       C  0.71527835  0.52987738  0.92540807     0.03100
C1200       C  0.68643208  0.51068868  0.92988447    -0.04800
C1201       C  0.69051436  0.49098920  0.96001335    -0.01900
C1202       C  0.72306324  0.49063226  0.98536846     0.03100
C1203       C  0.77739568  0.54886541  0.94325803     0.37700
C1204       C  0.66039814  0.47186382  0.96632921     0.37700
C1205       C  0.72608612  0.47127086  0.01742427     0.36100
C1206       C  0.71217429  0.54995436  0.89426891     0.36100
N1207       N  0.72850026  0.45598242  0.04327130    -0.38700
N1208       N  0.70981869  0.56610092  0.86969534    -0.38700
N1209       N  0.63630350  0.45664451  0.97142992    -0.38100
N1210       N  0.80089856  0.56437556  0.93717903    -0.38100
C1211       C  0.88521634  0.49345497  0.91897604    -0.04800
C1212       C  0.92356884  0.49295906  0.90764918    -0.01900
C1213       C  0.93328253  0.49190836  0.86634824     0.03100
C1214       C  0.90475216  0.49276467  0.83639163    -0.04800
C1215       C  0.86659152  0.48996501  0.84776729    -0.01900
C1216       C  0.85685382  0.49008300  0.88911560     0.03100
C1217       C  0.95302382  0.49462742  0.93826800     0.37700
C1218       C  0.83733592  0.48752560  0.81702161     0.37700
C1219       C  0.81777806  0.48595304  0.90060590     0.36100
C1220       C  0.97241080  0.48817368  0.85502618     0.36100
N1221       N  0.78640919  0.48181401  0.90831457    -0.38700
N1222       N  0.00374443  0.48401870  0.84749141    -0.38700
N1223       N  0.81408739  0.48532593  0.79247816    -0.38100
N1224       N  0.97659605  0.49599467  0.96258097    -0.38100
C1225       C  0.87336140  0.85074333  0.21564526    -0.04800
C1226       C  0.90993987  0.85843376  0.22845057    -0.01900
C1227       C  0.92070616  0.88538108  0.22782030     0.03100
C1228       C  0.89479729  0.90456253  0.21428555    -0.04800
C1229       C  0.85689153  0.89709356  0.20642517    -0.01900
C1230       C  0.84626896  0.87019852  0.20679800     0.03100
C1231       C  0.93705277  0.83841502  0.23995915     0.37700
C1232       C  0.82919186  0.91707950  0.19636343     0.37700
C1233       C  0.80819204  0.86237562  0.19521628     0.36100
C1234       C  0.95921298  0.89305177  0.23780228     0.36100
N1235       N  0.77784547  0.85613369  0.18587976    -0.38700
N1236       N  0.98992473  0.89923795  0.24575296    -0.38700
N1237       N  0.80716303  0.93308170  0.18845400    -0.38100
N1238       N  0.95856384  0.82238924  0.24927045    -0.38100
C1239       C  0.94220200  0.75827964  0.07974494    -0.04800
C1240       C  0.97231328  0.77642874  0.08487006    -0.01900
C1241       C  0.00453063  0.77513991  0.05970982     0.03100
C1242       C  0.00703881  0.75588203  0.02828237    -0.04800
C1243       C  0.97765340  0.73695595  0.02431570    -0.01900
C1244       C  0.94514029  0.73839711  0.04945748     0.03100
C1245       C  0.97041914  0.79640762  0.11658410     0.37700
C1246       C  0.98062231  0.71618774  0.99409302     0.37700
C1247       C  0.91363071  0.72047627  0.04227682     0.36100
C1248       C  0.03606943  0.79290513  0.06805294     0.36100
N1249       N  0.88830679  0.70637186  0.03627158    -0.38700
N1250       N  0.06110581  0.80703441  0.07521669    -0.38700
N1251       N  0.98324074  0.69947867  0.97019274    -0.38100
N1252       N  0.96886802  0.81239324  0.14173681    -0.38100
C1253       C  0.91083840  0.75153354  0.41613859    -0.04800
C1254       C  0.93808668  0.74165576  0.38816258    -0.01900
C1255       C  0.93221282  0.74426913  0.34632904     0.03100
C1256       C  0.89896441  0.75592026  0.33209829    -0.04800
C1257       C  0.87329415  0.76763544  0.35926434    -0.01900
C1258       C  0.87894424  0.76523292  0.40130958     0.03100
C1259       C  0.97145494  0.72753008  0.40155771     0.37700
C1260       C  0.83993279  0.78088595  0.34387675     0.37700
C1261       C  0.84983806  0.77448164  0.42870430     0.36100
C1262       C  0.95987748  0.73432123  0.31757806     0.36100
N1263       N  0.82606182  0.78157067  0.45012268    -0.38700
N1264       N  0.98198633  0.72658720  0.29463187    -0.38700
N1265       N  0.81345260  0.79162276  0.33173360    -0.38100
N1266       N  0.99778109  0.71568713  0.41144337    -0.38100
C1267       C  0.84554952  0.65191686  0.14233745    -0.04800
C1268       C  0.81525140  0.63450972  0.15178143    -0.01900
C1269       C  0.81501282  0.60827994  0.13682272     0.03100
C1270       C  0.84437868  0.59945197  0.11128655    -0.04800
C1271       C  0.87426674  0.61689616  0.10125798    -0.01900
C1272       C  0.87523139  0.64281339  0.11723864     0.03100
C1273       C  0.78356302  0.64376822  0.17579197     0.37700
C1274       C  0.90477254  0.60789564  0.07530138     0.37700
C1275       C  0.90795606  0.65951186  0.10951118     0.36100
C1276       C  0.78390399  0.59061224  0.14673075     0.36100
N1277       N  0.93432217  0.67260546  0.10358388    -0.38700
N1278       N  0.75909216  0.57654184  0.15471013    -0.38700
N1279       N  0.92903155  0.60072313  0.05453860    -0.38100
N1280       N  0.75825964  0.65119405  0.19484354    -0.38100
C1281       C  0.65480937  0.65186462  0.78854010    -0.04800
C1282       C  0.68082024  0.63106301  0.78381690    -0.01900
C1283       C  0.66767149  0.60465736  0.78236003     0.03100
C1284       C  0.62886437  0.59904694  0.78803753    -0.04800
C1285       C  0.60263506  0.61990199  0.78809767    -0.01900
C1286       C  0.61561974  0.64632243  0.78733111     0.03100
C1287       C  0.72109966  0.63667833  0.78403721     0.37700
C1288       C  0.56256765  0.61418202  0.79205020     0.37700
C1289       C  0.58879292  0.66788991  0.78690480     0.36100
C1290       C  0.69404146  0.58317532  0.77625931     0.36100
N1291       N  0.56745243  0.68513619  0.78613571    -0.38700
N1292       N  0.71502359  0.56606209  0.77075415    -0.38700
N1293       N  0.53063282  0.60952538  0.79539614    -0.38100
N1294       N  0.75321796  0.64125338  0.78455839    -0.38100
C1295       C  0.75293495  0.74482252  0.96585368    -0.04800
C1296       C  0.78984111  0.75538641  0.96601680    -0.01900
C1297       C  0.80900646  0.75875518  0.00297190     0.03100
C1298       C  0.79096985  0.75175072  0.03957825    -0.04800
C1299       C  0.75412479  0.74107832  0.03938491    -0.01900
C1300       C  0.73506261  0.73754991  0.00241935     0.03100
C1301       C  0.80819212  0.76239443  0.92819459     0.37700
C1302       C  0.73541996  0.73465568  0.07727098     0.37700
C1303       C  0.69670452  0.72710436  0.00214300     0.36100
C1304       C  0.84746771  0.76900646  0.00326932     0.36100
N1305       N  0.66612577  0.71879698  0.00224790    -0.38700
N1306       N  0.87813195  0.77715816  0.00330828    -0.38700
N1307       N  0.72051850  0.72965499  0.10751986    -0.38100
N1308       N  0.82281405  0.76804206  0.89805837    -0.38100
C1309       C  0.84265337  0.75549523  0.67112817    -0.04800
C1310       C  0.84172548  0.73947933  0.70621757    -0.01900
C1311       C  0.80940451  0.73936202  0.73187771     0.03100
C1312       C  0.77771181  0.75515157  0.72244293    -0.04800
C1313       C  0.77796415  0.76968840  0.68577090    -0.01900
C1314       C  0.81021180  0.76996930  0.66066556     0.03100
C1315       C  0.87480434  0.72421512  0.71698167     0.37700
C1316       C  0.74483844  0.78445253  0.67332707     0.37700
C1317       C  0.81004592  0.78541735  0.62384048     0.36100
C1318       C  0.80970121  0.72421649  0.76902016     0.36100
N1319       N  0.80973974  0.79780881  0.59452088    -0.38700
N1320       N  0.81012627  0.71217041  0.79874954    -0.38700
N1321       N  0.71871335  0.79633056  0.66295158    -0.38100
N1322       N  0.90131008  0.71207206  0.72534568    -0.38100
C1323       C  0.65497843  0.09904611  0.96129951    -0.04800
C1324       C  0.61692268  0.10698989  0.95634933    -0.01900
C1325       C  0.60708992  0.13390744  0.95953201     0.03100
C1326       C  0.63524151  0.15321231  0.96662839    -0.04800
C1327       C  0.67252861  0.14516329  0.97550614    -0.01900
C1328       C  0.68231430  0.11806559  0.97335775     0.03100
C1329       C  0.58794192  0.08761188  0.94630559     0.37700
C1330       C  0.70113795  0.16490041  0.98503837     0.37700
C1331       C  0.72108155  0.11008233  0.98042487     0.36100
C1332       C  0.56826219  0.14202931  0.95298198     0.36100
N1333       N  0.75198825  0.10363690  0.98609873    -0.38700
N1334       N  0.53734370  0.14864073  0.94790522    -0.38700
N1335       N  0.72400898  0.18059964  0.99282615    -0.38100
N1336       N  0.56465075  0.07233561  0.93804781    -0.38100
C1337       C  0.75079659  0.00101020  0.78843218    -0.04800
C1338       C  0.74271203  0.97916254  0.76276277    -0.01900
C1339       C  0.76128921  0.97661976  0.72525071     0.03100
C1340       C  0.79101768  0.99421649  0.71475998    -0.04800
C1341       C  0.80131411  0.01467477  0.74215786    -0.01900
C1342       C  0.78103719  0.01824740  0.77845178     0.03100
C1343       C  0.71527442  0.95909170  0.77440626     0.37700
C1344       C  0.83348662  0.03179445  0.73399586     0.37700
C1345       C  0.79294967  0.03888833  0.80658642     0.36100
C1346       C  0.74821004  0.95653563  0.69677305     0.36100
N1347       N  0.80258299  0.05529221  0.82897263    -0.38700
N1348       N  0.73754140  0.94063871  0.67406223    -0.38700
N1349       N  0.85900907  0.04563719  0.72794677    -0.38100
N1350       N  0.69383529  0.94280525  0.78357082    -0.38100
C1351       C  0.78903262  0.99953141  0.01555655    -0.04800
C1352       C  0.79051882  0.01395598  0.05251073    -0.01900
C1353       C  0.82157647  0.01111808  0.07935290     0.03100
C1354       C  0.85294712  0.99539518  0.06831795    -0.04800
C1355       C  0.85342226  0.98384575  0.02895410    -0.01900
C1356       C  0.82144828  0.98545230  0.00323444     0.03100
C1357       C  0.75950726  0.03107192  0.06393416     0.37700
C1358       C  0.88716020  0.97069858  0.01423576     0.37700
C1359       C  0.82224533  0.97306694  0.96347493     0.36100
C1360       C  0.81988764  0.02314818  0.11930344     0.36100
N1361       N  0.82303834  0.96331187  0.93168376    -0.38700
N1362       N  0.81821248  0.03270909  0.15118671    -0.38700
N1363       N  0.91412856  0.96037734  0.00237726    -0.38100
N1364       N  0.73513947  0.04506305  0.07302307    -0.38100
C1365       C  0.69586347  0.90121145  0.89073358    -0.04800
C1366       C  0.72381497  0.88324078  0.90449517    -0.01900
C1367       C  0.72239200  0.85638263  0.89276529     0.03100
C1368       C  0.69488805  0.84753683  0.86489673    -0.04800
C1369       C  0.66821774  0.86551369  0.84939242    -0.01900
C1370       C  0.66806675  0.89206168  0.86283544     0.03100
C1371       C  0.75518602  0.89242523  0.92942262     0.37700
C1372       C  0.64023003  0.85641914  0.82013846     0.37700
C1373       C  0.63839371  0.90947841  0.84871926     0.36100
C1374       C  0.74953169  0.83787071  0.90915787     0.36100
N1375       N  0.61466396  0.92326259  0.83733127    -0.38700
N1376       N  0.77104472  0.82318189  0.92267409    -0.38700
N1377       N  0.61802503  0.84908075  0.79678441    -0.38100
N1378       N  0.78029295  0.89982411  0.94907155    -0.38100
C1379       C  0.63191844  0.65487141  0.47063422    -0.04800
C1380       C  0.67003727  0.64763022  0.47708924    -0.01900
C1381       C  0.68076470  0.62072454  0.47555441     0.03100
C1382       C  0.65337892  0.60094155  0.46750857    -0.04800
C1383       C  0.61477809  0.60802120  0.46566140    -0.01900
C1384       C  0.60411987  0.63488721  0.46687938     0.03100
C1385       C  0.69860326  0.66796860  0.48299763     0.37700
C1386       C  0.58607933  0.58761565  0.46095854     0.37700
C1387       C  0.56491036  0.64208980  0.46055008     0.36100
C1388       C  0.72032931  0.61363443  0.47897030     0.36100
N1389       N  0.53370713  0.64792968  0.45520931    -0.38700
N1390       N  0.75190408  0.60797962  0.48165652    -0.38700
N1391       N  0.56316837  0.57132734  0.45738535    -0.38100
N1392       N  0.72170121  0.68402445  0.48755543    -0.38100
C1393       C  0.76133027  0.74321603  0.28413734    -0.04800
C1394       C  0.75689335  0.72444693  0.31576693    -0.01900
C1395       C  0.72421535  0.72433800  0.34036547     0.03100
C1396       C  0.69626063  0.74397324  0.33595589    -0.04800
C1397       C  0.70180550  0.76389953  0.30649407    -0.01900
C1398       C  0.73379506  0.76330252  0.28034631     0.03100
C1399       C  0.78654130  0.70548569  0.32434991     0.37700
C1400       C  0.67355625  0.78429189  0.30163118     0.37700
C1401       C  0.73738528  0.78274074  0.24846511     0.36100
C1402       C  0.71939601  0.70357276  0.37016062     0.36100
N1403       N  0.74019629  0.79821075  0.22290210    -0.38700
N1404       N  0.71576934  0.68663860  0.39328922    -0.38700
N1405       N  0.65099493  0.80058356  0.29791862    -0.38100
N1406       N  0.81006022  0.69038666  0.33152159    -0.38100
C1407       C  0.62741268  0.75409051  0.59127199    -0.04800
C1408       C  0.65895469  0.73985225  0.60575984    -0.01900
C1409       C  0.66436635  0.73664362  0.64772586     0.03100
C1410       C  0.63911775  0.74838994  0.67537023    -0.04800
C1411       C  0.60647900  0.76104750  0.66138316    -0.01900
C1412       C  0.60057442  0.76411588  0.61953567     0.03100
C1413       C  0.68781702  0.73056306  0.57805403     0.37700
C1414       C  0.57922199  0.77117887  0.69039736     0.37700
C1415       C  0.56727603  0.77837331  0.60629183     0.36100
C1416       C  0.69704793  0.72235134  0.66253414     0.36100
N1417       N  0.54091224  0.79015858  0.59635055    -0.38700
N1418       N  0.72300429  0.71076171  0.67409632    -0.38700
N1419       N  0.55742754  0.77902376  0.71360137    -0.38100
N1420       N  0.71126733  0.72340815  0.55626118    -0.38100
C1421       C  0.63019488  0.10170213  0.28730905    -0.04800
C1422       C  0.66910699  0.10751378  0.28277660    -0.01900
C1423       C  0.68170872  0.13407055  0.28144698     0.03100
C1424       C  0.65542048  0.15479139  0.28526873    -0.04800
C1425       C  0.61632310  0.14890396  0.28420462    -0.01900
C1426       C  0.60369618  0.12235819  0.28503873     0.03100
C1427       C  0.69622226  0.08612945  0.28149451     0.37700
C1428       C  0.58919283  0.17028451  0.28426923     0.37700
C1429       C  0.56357314  0.11636383  0.28658923     0.36100
C1430       C  0.72180597  0.14007475  0.27911413     0.36100
N1431       N  0.53155195  0.11153209  0.28775606    -0.38700
N1432       N  0.75379772  0.14488265  0.27707558    -0.38700
N1433       N  0.56764521  0.18741163  0.28416273    -0.38100
N1434       N  0.71776640  0.06901009  0.28037554    -0.38100
C1435       C  0.68681323  0.01015635  0.43215987    -0.04800
C1436       C  0.71803601  0.99430322  0.42150964    -0.01900
C1437       C  0.74756082  0.98977153  0.44968661     0.03100
C1438       C  0.74907185  0.00378643  0.48706741    -0.04800
C1439       C  0.71723343  0.01905839  0.49823851    -0.01900
C1440       C  0.68596506  0.02153815  0.47160687     0.03100
C1441       C  0.72138929  0.98416565  0.38046457     0.37700
C1442       C  0.71604411  0.03178084  0.53775610     0.37700
C1443       C  0.65254881  0.03546005  0.48545186     0.36100
C1444       C  0.77573540  0.97013816  0.43997405     0.36100
N1445       N  0.62585822  0.04645099  0.49658102    -0.38700
N1446       N  0.79706244  0.95363502  0.43228625    -0.38700
N1447       N  0.71504380  0.04197815  0.56921760    -0.38100
N1448       N  0.72448642  0.97648985  0.34753878    -0.38100
C1449       C  0.65466729  0.00838449  0.17267829    -0.04800
C1450       C  0.68431741  0.99318712  0.15709908    -0.01900
C1451       C  0.68985817  0.99149617  0.11506662     0.03100
C1452       C  0.66533629  0.00518025  0.08794763    -0.04800
C1453       C  0.63913311  0.02343893  0.10428722    -0.01900
C1454       C  0.63416401  0.02521489  0.14673012     0.03100
C1455       C  0.70897349  0.97904770  0.18470025     0.37700
C1456       C  0.61557674  0.03923531  0.07788184     0.37700
C1457       C  0.60578893  0.04277372  0.16342326     0.36100
C1458       C  0.72083007  0.97523951  0.10050419     0.36100
N1459       N  0.58315721  0.05678168  0.17670903    -0.38700
N1460       N  0.74538455  0.96203189  0.08939166    -0.38700
N1461       N  0.59678308  0.05190145  0.05689158    -0.38100
N1462       N  0.72874130  0.96796956  0.20675117    -0.38100
C1463       C  0.59540396  0.90352611  0.35893051    -0.04800
C1464       C  0.56577916  0.88569600  0.34828737    -0.01900
C1465       C  0.56545393  0.85948106  0.36331442     0.03100
C1466       C  0.59458612  0.85070343  0.38910433    -0.04800
C1467       C  0.62422967  0.86830276  0.39962071    -0.01900
C1468       C  0.62465316  0.89452072  0.38478105     0.03100
C1469       C  0.53475417  0.89447737  0.32299778     0.37700
C1470       C  0.65477764  0.85926232  0.42539354     0.37700
C1471       C  0.65601579  0.91191256  0.39528362     0.36100
C1472       C  0.53477601  0.84155569  0.35273023     0.36100
N1473       N  0.68102091  0.92576274  0.40373655    -0.38700
N1474       N  0.51031260  0.82722813  0.34433936    -0.38700
N1475       N  0.67927146  0.85209118  0.44580037    -0.38100
N1476       N  0.50995150  0.90144962  0.30285108    -0.38100
C1477       C  0.50036469  0.99632585  0.53896356    -0.04800
C1478       C  0.48339403  0.01193526  0.50858470    -0.01900
C1479       C  0.50180956  0.01569962  0.47115663     0.03100
C1480       C  0.53692987  0.00349990  0.46358181    -0.04800
C1481       C  0.55351735  0.98743906  0.49363833    -0.01900
C1482       C  0.53542101  0.98407023  0.53132648     0.03100
C1483       C  0.44618320  0.02317555  0.51500495     0.37700
C1484       C  0.58967500  0.97484701  0.48625336     0.37700
C1485       C  0.55335116  0.96853520  0.56274594     0.36100
C1486       C  0.48396853  0.03137303  0.43981250     0.36100
N1487       N  0.56753898  0.95623269  0.58797137    -0.38700
N1488       N  0.46986338  0.04381601  0.41469165    -0.38700
N1489       N  0.61839820  0.96468213  0.48033587    -0.38100
N1490       N  0.41641364  0.03205624  0.51974853    -0.38100
C1491       C  0.52551170  0.00213419  0.78148045    -0.04800
C1492       C  0.56089007  0.99877367  0.76253675    -0.01900
C1493       C  0.59474039  0.00068192  0.78552962     0.03100
C1494       C  0.59353236  0.00397757  0.82820549    -0.04800
C1495       C  0.55807874  0.00601679  0.84736778    -0.01900
C1496       C  0.52445160  0.00638512  0.82400816     0.03100
C1497       C  0.56253792  0.99497030  0.71897512     0.37700
C1498       C  0.55633818  0.00909966  0.89106708     0.37700
C1499       C  0.48929502  0.01344792  0.84365015     0.36100
C1500       C  0.63077674  0.00078113  0.76474220     0.36100
N1501       N  0.46201945  0.02002733  0.86007368    -0.38700
N1502       N  0.65913914  0.00146875  0.74734521    -0.38700
N1503       N  0.55496880  0.01134170  0.92595879    -0.38100
N1504       N  0.56384621  0.99192642  0.68421489    -0.38100
C1505       C  0.35011030  0.99230251  0.57147523    -0.04800
C1506       C  0.35014960  0.98062711  0.53223546    -0.01900
C1507       C  0.31779834  0.98188570  0.50714086     0.03100
C1508       C  0.28526081  0.99561245  0.52003923    -0.04800
C1509       C  0.28673217  0.00982176  0.55720721    -0.01900
C1510       C  0.31860494  0.00768472  0.58316388     0.03100
C1511       C  0.38384380  0.96767970  0.51697493     0.37700
C1512       C  0.25460283  0.02542885  0.57013217     0.37700
C1513       C  0.31786370  0.02009293  0.62287718     0.36100
C1514       C  0.31802006  0.96900099  0.46771252     0.36100
N1515       N  0.31724164  0.02998920  0.65457204    -0.38700
N1516       N  0.31805556  0.95871209  0.43630096    -0.38700
N1517       N  0.22910392  0.03795986  0.58060106    -0.38100
N1518       N  0.41074316  0.95750967  0.50464041    -0.38100
C1519       C  0.49967106  0.25165072  0.71860939    -0.04800
C1520       C  0.53559734  0.26288938  0.72571125    -0.01900
C1521       C  0.55397494  0.25864424  0.76279494     0.03100
C1522       C  0.53612580  0.24356151  0.79338164    -0.04800
C1523       C  0.49979818  0.23272527  0.78665175    -0.01900
C1524       C  0.48194507  0.23619080  0.74888163     0.03100
C1525       C  0.55421178  0.27822407  0.69433914     0.37700
C1526       C  0.47982797  0.21952568  0.81930438     0.37700
C1527       C  0.44502145  0.22431448  0.74164012     0.36100
C1528       C  0.59155185  0.26969018  0.76906876     0.36100
N1529       N  0.41573576  0.21461174  0.73595914    -0.38700
N1530       N  0.62137724  0.27876424  0.77372483    -0.38700
N1531       N  0.46353773  0.20937185  0.84542621    -0.38100
N1532       N  0.56895076  0.29047977  0.66931934    -0.38100
C1533       C  0.60684713  0.24291190  0.43396965    -0.04800
C1534       C  0.60747794  0.23159254  0.47338906    -0.01900
C1535       C  0.57573161  0.23355343  0.49955401     0.03100
C1536       C  0.54251712  0.24676510  0.48711387    -0.04800
C1537       C  0.54310408  0.25975851  0.44902025    -0.01900
C1538       C  0.57458129  0.25746482  0.42251128     0.03100
C1539       C  0.64100714  0.21803635  0.48766413     0.37700
C1540       C  0.51101274  0.27509477  0.43595022     0.37700
C1541       C  0.57257506  0.26877676  0.38222328     0.36100
C1542       C  0.57764399  0.22240622  0.53996531     0.36100
N1543       N  0.57095470  0.27764827  0.35000096    -0.38700
N1544       N  0.57919556  0.21365754  0.57227522    -0.38700
N1545       N  0.48620626  0.28791485  0.42475662    -0.38100
N1546       N  0.66764602  0.20718601  0.49918059    -0.38100
C1547       C  0.44710484  0.14939277  0.61530478    -0.04800
C1548       C  0.41850201  0.13163179  0.60253233    -0.01900
C1549       C  0.41732681  0.10549877  0.61750557     0.03100
C1550       C  0.44511715  0.09662781  0.64526895    -0.04800
C1551       C  0.47405074  0.11453431  0.65768972    -0.01900
C1552       C  0.47463848  0.14086697  0.64321132     0.03100
C1553       C  0.38947141  0.14056990  0.57469993     0.37700
C1554       C  0.50428037  0.10567907  0.68399548     0.37700
C1555       C  0.50382159  0.15921848  0.65666977     0.36100
C1556       C  0.38655850  0.08812243  0.60514125     0.36100
N1557       N  0.52691291  0.17399471  0.66742502    -0.38700
N1558       N  0.36194992  0.07437953  0.59510496    -0.38700
N1559       N  0.52860474  0.09865288  0.70475792    -0.38100
N1560       N  0.36626007  0.14775878  0.55265089    -0.38100
C1561       C  0.28525806  0.99719645  0.21547764    -0.04800
C1562       C  0.29574945  0.01809665  0.24209624    -0.01900
C1563       C  0.27532664  0.02243732  0.27810272     0.03100
C1564       C  0.24372763  0.00636167  0.28745344    -0.04800
C1565       C  0.23194517  0.98647287  0.25976326    -0.01900
C1566       C  0.25271094  0.98183344  0.22409212     0.03100
C1567       C  0.32834475  0.03477626  0.23345188     0.37700
C1568       C  0.19780719  0.97109792  0.26730046     0.37700
C1569       C  0.23953425  0.96184386  0.19554834     0.36100
C1570       C  0.28801480  0.04281131  0.30626274     0.36100
N1571       N  0.22895834  0.94593373  0.17281299    -0.38700
N1572       N  0.29816052  0.05906355  0.32865017    -0.38700
N1573       N  0.17069345  0.95879220  0.27334350    -0.38100
N1574       N  0.35432805  0.04808685  0.22674647    -0.38100
C1575       C  0.51091344  0.99594328  0.22274494    -0.04800
C1576       C  0.47596026  0.99731179  0.24312630    -0.01900
C1577       C  0.44158138  0.99521316  0.22108893     0.03100
C1578       C  0.44176669  0.99465450  0.17805514    -0.04800
C1579       C  0.47676568  0.99495750  0.15768988    -0.01900
C1580       C  0.51100188  0.99393886  0.17988059     0.03100
C1581       C  0.47552272  0.99957678  0.28698491     0.37700
C1582       C  0.47740643  0.99471238  0.11371119     0.37700
C1583       C  0.54578750  0.98839106  0.15845741     0.36100
C1584       C  0.40639390  0.99211163  0.24305856     0.36100
N1585       N  0.57273845  0.98292592  0.14052567    -0.38700
N1586       N  0.37890819  0.98894855  0.26146138    -0.38700
N1587       N  0.47754037  0.99476675  0.07863561    -0.38100
N1588       N  0.47545055  0.00155345  0.32195261    -0.38100
C1589       C  0.24910865  0.99814499  0.98775128    -0.04800
C1590       C  0.21645685  0.01243043  0.99888215    -0.01900
C1591       C  0.18502403  0.01374942  0.97238132     0.03100
C1592       C  0.18638924  0.00194578  0.93325564    -0.04800
C1593       C  0.21776928  0.98589584  0.92348355    -0.01900
C1594       C  0.24826867  0.98327289  0.95113500     0.03100
C1595       C  0.21482597  0.02543465  0.03815520     0.37700
C1596       C  0.21984880  0.97307230  0.88412898     0.37700
C1597       C  0.27942200  0.96600456  0.94072953     0.36100
C1598       C  0.15069074  0.02653871  0.98624941     0.36100
N1599       N  0.30393400  0.95194716  0.93235336    -0.38700
N1600       N  0.12320495  0.03649599  0.99745408    -0.38700
N1601       N  0.22171795  0.96288603  0.85271373    -0.38100
N1602       N  0.21338692  0.03578505  0.06947600    -0.38100
C1603       C  0.38340405  0.99045219  0.83076025    -0.04800
C1604       C  0.40508301  0.97451895  0.85689674    -0.01900
C1605       C  0.40047525  0.97662096  0.89945903     0.03100
C1606       C  0.37282706  0.99387757  0.91583759    -0.04800
C1607       C  0.34733299  0.00649819  0.88843800    -0.01900
C1608       C  0.35287989  0.00474099  0.84631144     0.03100
C1609       C  0.43383473  0.95733763  0.84000585     0.37700
C1610       C  0.31542728  0.02189722  0.90272402     0.37700
C1611       C  0.32721437  0.01777752  0.81847938     0.36100
C1612       C  0.42612424  0.96249529  0.92582843     0.36100
N1613       N  0.30666917  0.02789720  0.79614490    -0.38700
N1614       N  0.44686273  0.95124581  0.94662584    -0.38700
N1615       N  0.29005391  0.03447998  0.91340037    -0.38100
N1616       N  0.45657219  0.94356114  0.82635052    -0.38100
C1617       C  0.43834838  0.25249739  0.07348014    -0.04800
C1618       C  0.43676908  0.26096583  0.03252904    -0.01900
C1619       C  0.46915212  0.25962312  0.00738202     0.03100
C1620       C  0.50370132  0.24987335  0.02260876    -0.04800
C1621       C  0.50394009  0.23873940  0.06202193    -0.01900
C1622       C  0.47177405  0.24049548  0.08751147     0.03100
C1623       C  0.40168251  0.27098893  0.01587493     0.37700
C1624       C  0.53722693  0.22566223  0.07719017     0.37700
C1625       C  0.47399090  0.23137794  0.12908522     0.36100
C1626       C  0.46663160  0.26752288  0.96523248     0.36100
N1627       N  0.47584600  0.22420391  0.16228296    -0.38700
N1628       N  0.46459482  0.27351386  0.93148793    -0.38700
N1629       N  0.56279447  0.21442699  0.09025333    -0.38100
N1630       N  0.37382256  0.27900784  0.00234385    -0.38100
C1631       C  0.39221095  0.24711151  0.33551072    -0.04800
C1632       C  0.39651829  0.22282329  0.35598426    -0.01900
C1633       C  0.40059404  0.22233236  0.39808097     0.03100
C1634       C  0.40459598  0.24619664  0.42034612    -0.04800
C1635       C  0.40082352  0.27068030  0.39997217    -0.01900
C1636       C  0.39531305  0.27111733  0.35745130     0.03100
C1637       C  0.39743863  0.19793107  0.33363242     0.37700
C1638       C  0.40238682  0.29543799  0.42232948     0.37700
C1639       C  0.39304750  0.29622853  0.33655501     0.36100
C1640       C  0.39903265  0.19687385  0.41843213     0.36100
N1641       N  0.39155452  0.31634037  0.32005001    -0.38700
N1642       N  0.39776213  0.17658510  0.43446326    -0.38700
N1643       N  0.40361596  0.31530050  0.43987394    -0.38100
N1644       N  0.39801785  0.17816338  0.31583475    -0.38100
C1645       C  0.34170991  0.09677577  0.11454021    -0.04800
C1646       C  0.37187461  0.11410412  0.10546571    -0.01900
C1647       C  0.37122196  0.14060111  0.11903675     0.03100
C1648       C  0.34067844  0.14984952  0.14281730    -0.04800
C1649       C  0.31095347  0.13205889  0.15295891    -0.01900
C1650       C  0.31149628  0.10564873  0.13875097     0.03100
C1651       C  0.40439896  0.10420632  0.08344169     0.37700
C1652       C  0.27938255  0.14092661  0.17749079     0.37700
C1653       C  0.28111441  0.08750598  0.14924088     0.36100
C1654       C  0.40291291  0.15792683  0.10986408     0.36100
N1655       N  0.25697159  0.07300800  0.15776296    -0.38700
N1656       N  0.42822211  0.17169360  0.10245293    -0.38700
N1657       N  0.25428064  0.14793695  0.19721243    -0.38100
N1658       N  0.43039468  0.09600820  0.06632921    -0.38100
C1659       C  0.12711860  0.09524291  0.78992821    -0.04800
C1660       C  0.10131647  0.11476210  0.80226665    -0.01900
C1661       C  0.11254123  0.14153769  0.80360126     0.03100
C1662       C  0.14974279  0.14906010  0.79232235    -0.04800
C1663       C  0.17386736  0.12986304  0.77502508    -0.01900
C1664       C  0.16257684  0.10292898  0.77406680     0.03100
C1665       C  0.06385711  0.10704830  0.81599208     0.37700
C1666       C  0.21139799  0.13734999  0.76145678     0.37700
C1667       C  0.18821312  0.08288670  0.75905650     0.36100
C1668       C  0.08621366  0.16116531  0.81863671     0.36100
N1669       N  0.20856152  0.06684203  0.74699555    -0.38700
N1670       N  0.06514000  0.17663574  0.83099279    -0.38700
N1671       N  0.24137776  0.14328863  0.75060635    -0.38100
N1672       N  0.03397384  0.10094087  0.82692158    -0.38100
C1673       C  0.25373749  0.24576958  0.96473266    -0.04800
C1674       C  0.24193278  0.26647762  0.99081265    -0.01900
C1675       C  0.25838618  0.26939984  0.02938988     0.03100
C1676       C  0.28908410  0.25333608  0.04074035    -0.04800
C1677       C  0.30247116  0.23372305  0.01365318    -0.01900
C1678       C  0.28429752  0.22955342  0.97623429     0.03100
C1679       C  0.21209696  0.28447393  0.97876894     0.37700
C1680       C  0.33594118  0.21842698  0.02337734     0.37700
C1681       C  0.29820252  0.20917224  0.94900328     0.36100
C1682       C  0.24224047  0.28801127  0.05810965     0.36100
N1683       N  0.30935708  0.19284786  0.92750579    -0.38700
N1684       N  0.22894611  0.30264179  0.08101337    -0.38700
N1685       N  0.36271889  0.20638543  0.03108348    -0.38100
N1686       N  0.18845358  0.29887554  0.96911529    -0.38100
C1687       C  0.09936664  0.24333431  0.92688476    -0.04800
C1688       C  0.10032469  0.24472724  0.96980974    -0.01900
C1689       C  0.06645827  0.24756684  0.99241781     0.03100
C1690       C  0.03102550  0.24703192  0.97268782    -0.04800
C1691       C  0.03011504  0.24438188  0.92986395    -0.01900
C1692       C  0.06403115  0.24368373  0.90708162     0.03100
C1693       C  0.13579206  0.24140685  0.99114616     0.37700
C1694       C  0.99451442  0.23981831  0.90915248     0.37700
C1695       C  0.06252389  0.24133942  0.86323857     0.36100
C1696       C  0.06792053  0.24934522  0.03628912     0.36100
N1697       N  0.06141012  0.23943930  0.82828243    -0.38700
N1698       N  0.06909943  0.25076235  0.07129354    -0.38700
N1699       N  0.96683441  0.23522016  0.89170604    -0.38100
N1700       N  0.16352283  0.23804186  0.00898800    -0.38100
C1701       C  0.28872230  0.24852841  0.73635665    -0.04800
C1702       C  0.32053056  0.26416914  0.74738897    -0.01900
C1703       C  0.35254056  0.26583058  0.72172231     0.03100
C1704       C  0.35286698  0.25293788  0.68325969    -0.04800
C1705       C  0.32232939  0.23582909  0.67355931    -0.01900
C1706       C  0.29112022  0.23308923  0.70036810     0.03100
C1707       C  0.32071942  0.27852244  0.78564121     0.37700
C1708       C  0.32201075  0.22176069  0.63513813     0.37700
C1709       C  0.26137571  0.21447555  0.69008646     0.36100
C1710       C  0.38570440  0.28024241  0.73602398     0.36100
N1711       N  0.23842197  0.19901847  0.68169044    -0.38700
N1712       N  0.41213126  0.29156277  0.74774375    -0.38700
N1713       N  0.32171677  0.21058617  0.60444187    -0.38100
N1714       N  0.32088765  0.29010106  0.81598879    -0.38100
C1715       C  0.15785110  0.59578089  0.96443741    -0.04800
C1716       C  0.11916414  0.60025298  0.97254685    -0.01900
C1717       C  0.10454321  0.62625134  0.97160456     0.03100
C1718       C  0.12880464  0.64783027  0.96333121    -0.04800
C1719       C  0.16824710  0.64354571  0.96123562    -0.01900
C1720       C  0.18267528  0.61756846  0.96115082     0.03100
C1721       C  0.09427829  0.57794596  0.98025019     0.37700
C1722       C  0.19386536  0.66594225  0.95798993     0.37700
C1723       C  0.22278251  0.61312519  0.95523966     0.36100
C1724       C  0.06433957  0.63061213  0.97658729     0.36100
N1725       N  0.25476200  0.60946322  0.95052968    -0.38700
N1726       N  0.03224159  0.63409497  0.98066927    -0.38700
N1727       N  0.21429048  0.68384056  0.95562588    -0.38100
N1728       N  0.07457135  0.56010119  0.98670944    -0.38100
C1729       C  0.10129181  0.50800500  0.82357280    -0.04800
C1730       C  0.09565368  0.48802952  0.79382128    -0.01900
C1731       C  0.06310153  0.48825833  0.76838115     0.03100
C1732       C  0.03642782  0.50892691  0.77149539    -0.04800
C1733       C  0.04251620  0.52902493  0.80114046    -0.01900
C1734       C  0.07421339  0.52828442  0.82716532     0.03100
C1735       C  0.12427684  0.46798111  0.78794186     0.37700
C1736       C  0.01503584  0.54996114  0.80688185     0.37700
C1737       C  0.07815048  0.54817237  0.85881090     0.36100
C1738       C  0.05773920  0.46770539  0.73812230     0.36100
N1739       N  0.08088515  0.56409190  0.88395705    -0.38700
N1740       N  0.05343953  0.45132157  0.71391395    -0.38700
N1741       N  0.99328653  0.56670352  0.81157270    -0.38100
N1742       N  0.14727663  0.45210847  0.78301072    -0.38100
C1743       C  0.19472409  0.39886876  0.88982831    -0.04800
C1744       C  0.22696984  0.38286544  0.89602701    -0.01900
C1745       C  0.22738289  0.35646559  0.88182368     0.03100
C1746       C  0.19585498  0.34597232  0.86093805    -0.04800
C1747       C  0.16390078  0.36195068  0.85417920    -0.01900
C1748       C  0.16311529  0.38818226  0.86894079     0.03100
C1749       C  0.26029316  0.39377571  0.91582144     0.37700
C1750       C  0.13166632  0.35128480  0.83208341     0.37700
C1751       C  0.12907768  0.40374681  0.86404657     0.36100
C1752       C  0.26056045  0.34021211  0.88789183     0.36100
N1753       N  0.10184879  0.41609096  0.86032238    -0.38700
N1754       N  0.28701919  0.32722656  0.89264042    -0.38700
N1755       N  0.10604671  0.34277534  0.81433645    -0.38100
N1756       N  0.28692747  0.40249547  0.93149328    -0.38100
C1757       C  0.15377808  0.09541952  0.47054132    -0.04800
C1758       C  0.11603549  0.10453377  0.46964334    -0.01900
C1759       C  0.10844422  0.13191473  0.46974772     0.03100
C1760       C  0.13851720  0.15034742  0.46901260    -0.04800
C1761       C  0.17607504  0.14131513  0.47344125    -0.01900
C1762       C  0.18355195  0.11389202  0.47546613     0.03100
C1763       C  0.08501355  0.08572172  0.46658549     0.37700
C1764       C  0.20716488  0.16014475  0.47377393     0.37700
C1765       C  0.22210065  0.10462314  0.47963514     0.36100
C1766       C  0.06975665  0.14117997  0.46715849     0.36100
N1767       N  0.25273240  0.09703709  0.48327411    -0.38700
N1768       N  0.03903920  0.14883862  0.46509411    -0.38700
N1769       N  0.23213605  0.17505455  0.47386126    -0.38100
N1770       N  0.06015073  0.07081043  0.46400138    -0.38100
C1771       C  0.04476854  0.23793900  0.28804064    -0.04800
C1772       C  0.01264469  0.22274419  0.27716996    -0.01900
C1773       C  0.99459818  0.22699788  0.23963232     0.03100
C1774       C  0.00882862  0.24637181  0.21263744    -0.04800
C1775       C  0.04229666  0.26031729  0.22251609    -0.01900
C1776       C  0.06006584  0.25626591  0.26009559     0.03100
C1777       C  0.99722302  0.20343296  0.30515637     0.37700
C1778       C  0.05922177  0.27831537  0.19344323     0.37700
C1779       C  0.09477806  0.27060819  0.26937745     0.36100
C1780       C  0.96059333  0.21204324  0.22966863     0.36100
N1781       N  0.12239785  0.28212746  0.27653973    -0.38700
N1782       N  0.93360365  0.20002096  0.22167668    -0.38700
N1783       N  0.07275089  0.29257226  0.17018653    -0.38100
N1784       N  0.98494167  0.18797147  0.32737873    -0.38100
C1785       C  0.00707349  0.24937374  0.52259308    -0.04800
C1786       C  0.00633640  0.23631973  0.56061819    -0.01900
C1787       C  0.97481640  0.23894881  0.58709887     0.03100
C1788       C  0.94321512  0.25431060  0.57574448    -0.04800
C1789       C  0.94264649  0.26519741  0.53605257    -0.01900
C1790       C  0.97407864  0.26261723  0.50987442     0.03100
C1791       C  0.03818600  0.22056148  0.57336862     0.37700
C1792       C  0.90947365  0.27901369  0.52140341     0.37700
C1793       C  0.97221313  0.27338745  0.46918790     0.36100
C1794       C  0.97592163  0.22683821  0.62684486     0.36100
N1795       N  0.97082959  0.28184665  0.43669218    -0.38700
N1796       N  0.97685359  0.21709157  0.65849843    -0.38700
N1797       N  0.88321092  0.29014469  0.50955665    -0.38100
N1798       N  0.06288273  0.20742855  0.58405053    -0.38100
C1799       C  0.19029716  0.24357833  0.32218057    -0.04800
C1800       C  0.18960999  0.23134266  0.28333573    -0.01900
C1801       C  0.22070690  0.23380503  0.25673835     0.03100
C1802       C  0.25298309  0.24880839  0.26808391    -0.04800
C1803       C  0.25173880  0.26347066  0.30491086    -0.01900
C1804       C  0.22104762  0.26036250  0.33215352     0.03100
C1805       C  0.15669320  0.21622964  0.27016233     0.37700
C1806       C  0.28230882  0.28132957  0.31581133     0.37700
C1807       C  0.22241358  0.27318656  0.37156587     0.36100
C1808       C  0.21930844  0.22079794  0.21739348     0.36100
N1809       N  0.22359139  0.28332702  0.40306910    -0.38700
N1810       N  0.21826929  0.21037327  0.18609845    -0.38700
N1811       N  0.30608844  0.29605598  0.32472345    -0.38100
N1812       N  0.13058507  0.20415867  0.25943094    -0.38100
C1813       C  0.14612042  0.24733454  0.67166854    -0.04800
C1814       C  0.14889874  0.22450830  0.64728339    -0.01900
C1815       C  0.14655283  0.22666022  0.60460587     0.03100
C1816       C  0.14144488  0.25182177  0.58634616    -0.04800
C1817       C  0.13877555  0.27452263  0.61170270    -0.01900
C1818       C  0.13760090  0.27178066  0.65375458     0.03100
C1819       C  0.15356161  0.19885563  0.66598673     0.37700
C1820       C  0.13963656  0.30117094  0.59530753     0.37700
C1821       C  0.12784214  0.29441143  0.67903269     0.36100
C1822       C  0.14957114  0.20287652  0.58013366     0.36100
N1823       N  0.11978891  0.31226065  0.69926525    -0.38700
N1824       N  0.15194091  0.18369215  0.56107805    -0.38700
N1825       N  0.14064570  0.32247088  0.58266345    -0.38100
N1826       N  0.15692465  0.17828626  0.68074036    -0.38100
C1827       C  0.13548745  0.59446190  0.28532145    -0.04800
C1828       C  0.17441038  0.60123393  0.28705702    -0.01900
C1829       C  0.18603356  0.62804193  0.28608848     0.03100
C1830       C  0.15877698  0.64825514  0.28588383    -0.04800
C1831       C  0.12026486  0.64148116  0.28012135    -0.01900
C1832       C  0.10876686  0.61463215  0.27885285     0.03100
C1833       C  0.20242971  0.58067633  0.29199143     0.37700
C1834       C  0.09228146  0.66223387  0.27728913     0.37700
C1835       C  0.06909674  0.60785267  0.27408840     0.36100
C1836       C  0.22590178  0.63490743  0.28776512     0.36100
N1837       N  0.03747993  0.60235358  0.27007995    -0.38700
N1838       N  0.25770240  0.64046706  0.28864422    -0.38700
N1839       N  0.06997540  0.67881350  0.27507387    -0.38100
N1840       N  0.22486586  0.56435604  0.29622014    -0.38100
C1841       C  0.03822069  0.50488027  0.46501723    -0.04800
C1842       C  0.05506521  0.48948442  0.49574104    -0.01900
C1843       C  0.03699869  0.48662724  0.53346741     0.03100
C1844       C  0.00201774  0.49904912  0.54060682    -0.04800
C1845       C  0.98553750  0.51486602  0.51026925    -0.01900
C1846       C  0.00362153  0.51781342  0.47256861     0.03100
C1847       C  0.09163532  0.47728404  0.48917313     0.37700
C1848       C  0.94929169  0.52740620  0.51728280     0.37700
C1849       C  0.98596475  0.53352587  0.44116447     0.36100
C1850       C  0.05504553  0.47164510  0.56546424     0.36100
N1851       N  0.97189144  0.54610139  0.41618286    -0.38700
N1852       N  0.06957054  0.45983067  0.59102360    -0.38700
N1853       N  0.92039072  0.53740626  0.52277603    -0.38100
N1854       N  0.12077423  0.46751661  0.48409710    -0.38100
C1855       C  0.99431295  0.49777720  0.23427993    -0.04800
C1856       C  0.99311715  0.51288551  0.19809601    -0.01900
C1857       C  0.96113366  0.51153696  0.17206886     0.03100
C1858       C  0.92939040  0.49584231  0.18253831    -0.04800
C1859       C  0.92892191  0.48341284  0.22102215    -0.01900
C1860       C  0.96126216  0.48399586  0.24627343     0.03100
C1861       C  0.02570978  0.52848795  0.18591469     0.37700
C1862       C  0.89484522  0.47014730  0.23513235     0.37700
C1863       C  0.96040122  0.47024627  0.28478865     0.36100
C1864       C  0.96204189  0.52507157  0.13341280     0.36100
N1865       N  0.95957676  0.45919353  0.31541437    -0.38700
N1866       N  0.96293935  0.53586286  0.10256903    -0.38700
N1867       N  0.86764450  0.45963712  0.24633066    -0.38100
N1868       N  0.05160697  0.54097393  0.17598993    -0.38100
C1869       C  0.12341919  0.49649097  0.16373119    -0.04800
C1870       C  0.15546087  0.51044532  0.14928431    -0.01900
C1871       C  0.16219574  0.51207794  0.10725463     0.03100
C1872       C  0.13691022  0.49996541  0.07958734    -0.04800
C1873       C  0.10327283  0.48837256  0.09349798    -0.01900
C1874       C  0.09658613  0.48625813  0.13533501     0.03100
C1875       C  0.18272886  0.52186369  0.17737237     0.37700
C1876       C  0.07552179  0.47863687  0.06444398     0.37700
C1877       C  0.06203606  0.47319860  0.14849104     0.36100
C1878       C  0.19606284  0.52526772  0.09260265     0.36100
N1879       N  0.03454160  0.46249163  0.15835798    -0.38700
N1880       N  0.22307026  0.53596269  0.08130897    -0.38700
N1881       N  0.05322710  0.47119170  0.04126686    -0.38100
N1882       N  0.20441631  0.53104495  0.19976428    -0.38100
C1883       C  0.08646907  0.39911825  0.36093151    -0.04800
C1884       C  0.11638761  0.38234532  0.34931795    -0.01900
C1885       C  0.11691689  0.35566216  0.36191594     0.03100
C1886       C  0.08736172  0.34544017  0.38631768    -0.04800
C1887       C  0.05678047  0.36222082  0.39681976    -0.01900
C1888       C  0.05641354  0.38888056  0.38413496     0.03100
C1889       C  0.14694330  0.39270157  0.32457706     0.37700
C1890       C  0.02520634  0.35205259  0.42023719     0.37700
C1891       C  0.02494030  0.40583610  0.39470336     0.36100
C1892       C  0.14882567  0.33918845  0.35107803     0.36100
N1893       N  0.99986977  0.41941824  0.40302177    -0.38700
N1894       N  0.17434908  0.32614519  0.34232798    -0.38700
N1895       N  0.00003749  0.34403710  0.43902523    -0.38100
N1896       N  0.17129783  0.40097186  0.30484764    -0.38100
C1897       C  0.41349254  0.84820380  0.04111809    -0.04800
C1898       C  0.43992593  0.86906534  0.04478863    -0.01900
C1899       C  0.42738728  0.89552547  0.04599671     0.03100
C1900       C  0.38831621  0.90123208  0.04357712    -0.04800
C1901       C  0.36243742  0.88054935  0.03527120    -0.01900
C1902       C  0.37504021  0.85408835  0.03398368     0.03100
C1903       C  0.47972162  0.86320108  0.05016560     0.37700
C1904       C  0.32243933  0.88626852  0.03162445     0.37700
C1905       C  0.34813011  0.83273822  0.02744938     0.36100
C1906       C  0.45460104  0.91684703  0.05127862     0.36100
N1907       N  0.32660590  0.81573699  0.02213429    -0.38700
N1908       N  0.47647453  0.93376956  0.05536476    -0.38700
N1909       N  0.29054354  0.89096287  0.02888562    -0.38100
N1910       N  0.51149107  0.85857633  0.05444737    -0.38100
C1911       C  0.54195442  0.74499151  0.29077427    -0.04800
C1912       C  0.55946782  0.73795927  0.25387758    -0.01900
C1913       C  0.54006094  0.74141577  0.21700615     0.03100
C1914       C  0.50336315  0.75215925  0.21714667    -0.04800
C1915       C  0.48595359  0.75927344  0.25405820    -0.01900
C1916       C  0.50504042  0.75532342  0.29090872     0.03100
C1917       C  0.59784243  0.72790839  0.25388870     0.37700
C1918       C  0.44835452  0.77067644  0.25406402     0.37700
C1919       C  0.48632042  0.76118817  0.32898533     0.36100
C1920       C  0.55835477  0.73495038  0.17891928     0.36100
N1921       N  0.47116350  0.76567655  0.35929089    -0.38700
N1922       N  0.57301410  0.72985075  0.14854975    -0.38700
N1923       N  0.41851292  0.77995263  0.25395686    -0.38100
N1924       N  0.62848943  0.71999445  0.25405950    -0.38100
C1925       C  0.60009011  0.73914939  0.93151159    -0.04800
C1926       C  0.59247584  0.76144255  0.95647670    -0.01900
C1927       C  0.56111114  0.76136357  0.98360457     0.03100
C1928       C  0.53618939  0.73931384  0.98547780    -0.04800
C1929       C  0.54321168  0.71749141  0.95924733    -0.01900
C1930       C  0.57504747  0.71721411  0.93338267     0.03100
C1931       C  0.61728452  0.78436273  0.95507147     0.37700
C1932       C  0.51564646  0.69618158  0.95537212     0.37700
C1933       C  0.58093223  0.69435750  0.90734900     0.36100
C1934       C  0.55485388  0.78392366  0.00994928     0.36100
N1935       N  0.58549358  0.67595552  0.88700929    -0.38700
N1936       N  0.54990807  0.80192263  0.03102751    -0.38700
N1937       N  0.49353844  0.67936810  0.95163062    -0.38100
N1938       N  0.63682294  0.80279420  0.95390288    -0.38100
C1939       C  0.34969045  0.75889559  0.17948195    -0.04800
C1940       C  0.34460706  0.73834660  0.20814459    -0.01900
C1941       C  0.31241534  0.73790654  0.23406889     0.03100
C1942       C  0.28471685  0.75792535  0.23164774    -0.04800
C1943       C  0.28967094  0.77818691  0.20221234    -0.01900
C1944       C  0.32172800  0.77860427  0.17660107     0.03100
C1945       C  0.37310799  0.71802375  0.21191070     0.37700
C1946       C  0.26070070  0.79803233  0.19612837     0.37700
C1947       C  0.32513982  0.79899192  0.14594061     0.36100
C1948       C  0.30832886  0.71721486  0.26398386     0.36100
N1949       N  0.32772058  0.81524379  0.12152129    -0.38700
N1950       N  0.30501763  0.70075638  0.28798735    -0.38700
N1951       N  0.23777272  0.81389542  0.19090468    -0.38100
N1952       N  0.39583655  0.70177560  0.21485909    -0.38100
C1953       C  0.39488170  0.34497997  0.21685321    -0.04800
C1954       C  0.37035510  0.36450408  0.23226435    -0.01900
C1955       C  0.38161429  0.39134779  0.23171467     0.03100
C1956       C  0.41746723  0.39850502  0.21632078    -0.04800
C1957       C  0.44370944  0.37867825  0.20629718    -0.01900
C1958       C  0.43260266  0.35189719  0.20722468     0.03100
C1959       C  0.33264320  0.35728048  0.24562181     0.37700
C1960       C  0.48107448  0.38593634  0.19181928     0.37700
C1961       C  0.45953415  0.33141286  0.19684474     0.36100
C1962       C  0.35533443  0.41178537  0.24392671     0.36100
N1963       N  0.48094028  0.31498089  0.18884261    -0.38700
N1964       N  0.33440339  0.42813875  0.25358871    -0.38700
N1965       N  0.51080992  0.39168474  0.18001471    -0.38100
N1966       N  0.30261354  0.35146184  0.25646159    -0.38100
C1967       C  0.49245824  0.49975419  0.03836348    -0.04800
C1968       C  0.52424795  0.51669424  0.03665812    -0.01900
C1969       C  0.54441816  0.51933515  0.00019188     0.03100
C1970       C  0.53249674  0.50540468  0.96503829    -0.04800
C1971       C  0.50047239  0.48872346  0.96659220    -0.01900
C1972       C  0.48025208  0.48609616  0.00303361     0.03100
C1973       C  0.53717027  0.53066526  0.07272522     0.37700
C1974       C  0.48793840  0.47453585  0.93058929     0.37700
C1975       C  0.44623875  0.46982000  0.00375101     0.36100
C1976       C  0.57864059  0.53539166  0.99953748     0.36100
N1977       N  0.41914696  0.45685543  0.00434001    -0.38700
N1978       N  0.60597327  0.54810818  0.99918047    -0.38700
N1979       N  0.47807022  0.46310471  0.90195734    -0.38100
N1980       N  0.54733150  0.54186298  0.10145797    -0.38100
C1981       C  0.34160191  0.49063922  0.08314743    -0.04800
C1982       C  0.30890124  0.47676785  0.09528535    -0.01900
C1983       C  0.27609688  0.47693473  0.07083056     0.03100
C1984       C  0.27566541  0.49080186  0.03349428    -0.04800
C1985       C  0.30766477  0.50607043  0.02262710    -0.01900
C1986       C  0.34056658  0.50590034  0.04728894     0.03100
C1987       C  0.30885608  0.46263224  0.13347059     0.37700
C1988       C  0.30730210  0.52119957  0.98544002     0.37700
C1989       C  0.37395175  0.52057994  0.03490142     0.36100
C1990       C  0.24233581  0.46334371  0.08496420     0.36100
N1991       N  0.40062442  0.53228901  0.02511689    -0.38700
N1992       N  0.21551794  0.45257491  0.09661227    -0.38700
N1993       N  0.30704627  0.53337034  0.95582760    -0.38100
N1994       N  0.30880187  0.45148056  0.16401563    -0.38100
C1995       C  0.52348185  0.50790269  0.28471911    -0.04800
C1996       C  0.55910570  0.50679206  0.26565259    -0.01900
C1997       C  0.59279539  0.50819486  0.28903196     0.03100
C1998       C  0.59141036  0.50827031  0.33203761    -0.04800
C1999       C  0.55573581  0.50840713  0.35111252    -0.01900
C2000       C  0.52216518  0.50972052  0.32762248     0.03100
C2001       C  0.56109459  0.50591979  0.22176389     0.37700
C2002       C  0.55362660  0.50873929  0.39501830     0.37700
C2003       C  0.48671982  0.51536655  0.34770688     0.36100
C2004       C  0.62873578  0.51118417  0.26848307     0.36100
N2005       N  0.45906659  0.52095652  0.36426714    -0.38700
N2006       N  0.65692417  0.51433452  0.25136140    -0.38700
N2007       N  0.55194093  0.50882853  0.43004974    -0.38100
N2008       N  0.56269028  0.50524667  0.18674012    -0.38100
C2009       C  0.43544319  0.59835753  0.14805053    -0.04800
C2010       C  0.40726437  0.60667563  0.12024418    -0.01900
C2011       C  0.40747436  0.63283163  0.10524226     0.03100
C2012       C  0.43568556  0.65100779  0.11769780    -0.04800
C2013       C  0.46262201  0.64324244  0.14681121    -0.01900
C2014       C  0.46321601  0.61692621  0.16104856     0.03100
C2015       C  0.37734383  0.58865111  0.10755428     0.37700
C2016       C  0.48996777  0.66234651  0.16207461     0.37700
C2017       C  0.49387104  0.60872773  0.18733148     0.36100
C2018       C  0.37737792  0.64155399  0.07857302     0.36100
N2019       N  0.51852678  0.60213438  0.20798318    -0.38700
N2020       N  0.35315723  0.64866804  0.05774178    -0.38700
N2021       N  0.51148071  0.67762831  0.17472891    -0.38100
N2022       N  0.35345227  0.57437200  0.09723204    -0.38100
C2023       C  0.37072273  0.84692125  0.71761436    -0.04800
C2024       C  0.34553889  0.86749985  0.70826146    -0.01900
C2025       C  0.35897993  0.89377984  0.70561521     0.03100
C2026       C  0.39747550  0.89972613  0.71369265    -0.04800
C2027       C  0.42100617  0.87972602  0.72925927    -0.01900
C2028       C  0.40804803  0.85319743  0.72985944     0.03100
C2029       C  0.30646866  0.86130400  0.69833844     0.37700
C2030       C  0.45928000  0.88608350  0.74191661     0.37700
C2031       C  0.43403618  0.83207597  0.73958164     0.36100
C2032       C  0.33354582  0.91455894  0.69279437     0.36100
N2033       N  0.45481337  0.81515343  0.74685907    -0.38700
N2034       N  0.31330626  0.93110201  0.68238866    -0.38700
N2035       N  0.48969916  0.89120217  0.75247734    -0.38100
N2036       N  0.27528524  0.85635079  0.69052712    -0.38100
C2037       C  0.24837773  0.74312855  0.46551802    -0.04800
C2038       C  0.23223518  0.75915559  0.49597372    -0.01900
C2039       C  0.24948048  0.76106613  0.53434468     0.03100
C2040       C  0.28337547  0.74737645  0.54227714    -0.04800
C2041       C  0.29901680  0.73076259  0.51216134    -0.01900
C2042       C  0.28144573  0.72859016  0.47391897     0.03100
C2043       C  0.19713176  0.77300641  0.48845142     0.37700
C2044       C  0.33389153  0.71662007  0.51986320     0.37700
C2045       C  0.29800756  0.71196413  0.44273487     0.36100
C2046       C  0.23164288  0.77647523  0.56619567     0.36100
N2047       N  0.31108106  0.69873397  0.41776854    -0.38700
N2048       N  0.21746175  0.78863370  0.59173401    -0.38700
N2049       N  0.36165650  0.70529932  0.52597905    -0.38100
N2050       N  0.16910502  0.78409801  0.48285535    -0.38100
C2051       C  0.43429015  0.75590514  0.57472871    -0.04800
C2052       C  0.46586788  0.73989773  0.58391081    -0.01900
C2053       C  0.49737656  0.73869014  0.55717341     0.03100
C2054       C  0.49913715  0.75494526  0.52211631    -0.04800
C2055       C  0.46678339  0.76987341  0.51197278    -0.01900
C2056       C  0.43435097  0.76964119  0.53717004     0.03100
C2057       C  0.46712479  0.72571711  0.62199059     0.37700
C2058       C  0.46659590  0.78557369  0.47523819     0.37700
C2059       C  0.40055237  0.78311712  0.52341355     0.36100
C2060       C  0.52865415  0.72145684  0.56714277     0.36100
N2061       N  0.37360485  0.79374319  0.51223945    -0.38700
N2062       N  0.55333442  0.70747376  0.57511607    -0.38700
N2063       N  0.46656364  0.79829323  0.44616912    -0.38100
N2064       N  0.46831915  0.71453230  0.65248489    -0.38100
C2065       C  0.25010900  0.73576688  0.77218773    -0.04800
C2066       C  0.24072720  0.71286613  0.79521482    -0.01900
C2067       C  0.20899545  0.71258037  0.82124725     0.03100
C2068       C  0.18541107  0.73493666  0.82490932    -0.04800
C2069       C  0.19378397  0.75748217  0.80105420    -0.01900
C2070       C  0.22600103  0.75799430  0.77523907     0.03100
C2071       C  0.26405990  0.68933393  0.79349064     0.37700
C2072       C  0.16790340  0.77960406  0.80094093     0.37700
C2073       C  0.23353792  0.78121189  0.75087511     0.36100
C2074       C  0.20095475  0.68891720  0.84457623     0.36100
N2075       N  0.23951825  0.79973496  0.73138985    -0.38700
N2076       N  0.19463394  0.66979754  0.86251248    -0.38700
N2077       N  0.14703306  0.79713109  0.80034574    -0.38100
N2078       N  0.28220788  0.67038331  0.79215350    -0.38100
C2079       C  0.38291090  0.75412350  0.83850046    -0.04800
C2080       C  0.42136375  0.75365455  0.84928589    -0.01900
C2081       C  0.43185128  0.75402362  0.89042209     0.03100
C2082       C  0.40389359  0.75434356  0.92104865    -0.04800
C2083       C  0.36557405  0.75723042  0.91013875    -0.01900
C2084       C  0.35505143  0.75689833  0.86889525     0.03100
C2085       C  0.45010178  0.75128918  0.81803436     0.37700
C2086       C  0.33682952  0.75955834  0.94130885     0.37700
C2087       C  0.31549396  0.75914073  0.85804632     0.36100
C2088       C  0.47159460  0.75517949  0.90054596     0.36100
N2089       N  0.28368607  0.76119632  0.85056883    -0.38700
N2090       N  0.50376824  0.75696212  0.90616249    -0.38700
N2091       N  0.31394147  0.76157746  0.96616363    -0.38100
N2092       N  0.47289744  0.74929036  0.79307627    -0.38100
C2093       C  0.38078103  0.39828277  0.53558645    -0.04800
C2094       C  0.35357214  0.37806947  0.54067205    -0.01900
C2095       C  0.36506803  0.35139118  0.54292720     0.03100
C2096       C  0.40372212  0.34474722  0.53894471    -0.04800
C2097       C  0.42987173  0.36454935  0.52774949    -0.01900
C2098       C  0.41858413  0.39130170  0.52683640     0.03100
C2099       C  0.31416785  0.38493377  0.54649896     0.37700
C2100       C  0.46905295  0.35770269  0.52034135     0.37700
C2101       C  0.44659565  0.41162510  0.51913621     0.36100
C2102       C  0.33732178  0.33082705  0.55085224     0.36100
N2103       N  0.46992032  0.42721841  0.51298594    -0.38700
N2104       N  0.31516974  0.31441499  0.55714981    -0.38700
N2105       N  0.50029978  0.35228910  0.51425636    -0.38100
N2106       N  0.28274681  0.39052295  0.55096767    -0.38100
C2107       C  0.29660777  0.49181218  0.71763289    -0.04800
C2108       C  0.26642169  0.50993529  0.71922555    -0.01900
C2109       C  0.24614922  0.51346014  0.75540264     0.03100
C2110       C  0.25650933  0.49944447  0.79063888    -0.04800
C2111       C  0.28722574  0.48176413  0.78943063    -0.01900
C2112       C  0.30726266  0.47793703  0.75295843     0.03100
C2113       C  0.25563827  0.52474252  0.68344958     0.37700
C2114       C  0.29912150  0.46829850  0.82600728     0.37700
C2115       C  0.33993875  0.46069539  0.75232833     0.36100
C2116       C  0.21369841  0.53094831  0.75586162     0.36100
N2117       N  0.36609184  0.44704661  0.75182124    -0.38700
N2118       N  0.18783754  0.54486128  0.75620124    -0.38700
N2119       N  0.30868385  0.45762834  0.85520259    -0.38100
N2120       N  0.24732615  0.53672676  0.65504192    -0.38100
C2121       C  0.44738850  0.49143193  0.67004320    -0.04800
C2122       C  0.44814338  0.50733619  0.70547897    -0.01900
C2123       C  0.48065568  0.50788325  0.73078189     0.03100
C2124       C  0.51242072  0.49225766  0.72109664    -0.04800
C2125       C  0.51190501  0.47710804  0.68476382    -0.01900
C2126       C  0.47962075  0.47673509  0.65962807     0.03100
C2127       C  0.41472964  0.52201180  0.71709231     0.37700
C2128       C  0.54469256  0.46179501  0.67274985     0.37700
C2129       C  0.47942376  0.46095936  0.62289277     0.36100
C2130       C  0.48059114  0.52334250  0.76787425     0.36100
N2131       N  0.47929629  0.44835474  0.59359706    -0.38700
N2132       N  0.48056146  0.53562669  0.79755786    -0.38700
N2133       N  0.57051235  0.44939518  0.66283874    -0.38100
N2134       N  0.38808842  0.53373358  0.72642976    -0.38100
C2135       C  0.18491295  0.50268769  0.43066490    -0.04800
C2136       C  0.21393165  0.48398066  0.42371965    -0.01900
C2137       C  0.24533612  0.48223962  0.45061845     0.03100
C2138       C  0.24817268  0.49904487  0.48521297    -0.04800
C2139       C  0.21730129  0.51559164  0.49435752    -0.01900
C2140       C  0.18626157  0.51761307  0.46748499     0.03100
C2141       C  0.21252678  0.46709597  0.38808688     0.37700
C2142       C  0.21720700  0.53054848  0.53205067     0.37700
C2143       C  0.15551631  0.53511608  0.47872868     0.36100
C2144       C  0.27574426  0.46416708  0.44091593     0.36100
N2145       N  0.13130120  0.54924931  0.48780785    -0.38700
N2146       N  0.29987399  0.44971200  0.43285442    -0.38700
N2147       N  0.21704695  0.54239668  0.56213682    -0.38100
N2148       N  0.21133479  0.45349209  0.35979632    -0.38100
C2149       C  0.37974570  0.49032186  0.33004312    -0.04800
C2150       C  0.34838793  0.50372988  0.34557103    -0.01900
C2151       C  0.34386289  0.50621429  0.38763342     0.03100
C2152       C  0.37078008  0.49470176  0.41434992    -0.04800
C2153       C  0.39904934  0.47805263  0.39814306    -0.01900
C2154       C  0.40286358  0.47532622  0.35591362     0.03100
C2155       C  0.32113309  0.51517548  0.31785478     0.37700
C2156       C  0.42716129  0.46617416  0.42408428     0.37700
C2157       C  0.43317832  0.45932079  0.33931043     0.36100
C2158       C  0.31209369  0.52147247  0.40259145     0.36100
N2159       N  0.45742882  0.44658434  0.32630288    -0.38700
N2160       N  0.28686321  0.53402711  0.41372729    -0.38700
N2161       N  0.45040902  0.45691355  0.44402931    -0.38100
N2162       N  0.29928913  0.52395588  0.29558964    -0.38100
C2163       C  0.34538258  0.59508914  0.61609713    -0.04800
C2164       C  0.31621431  0.61333124  0.60697672    -0.01900
C2165       C  0.31833648  0.63966919  0.62116372     0.03100
C2166       C  0.34900014  0.64802590  0.64540578    -0.04800
C2167       C  0.37760942  0.62992315  0.65561628    -0.01900
C2168       C  0.37609155  0.60365960  0.64081993     0.03100
C2169       C  0.28302130  0.60499018  0.58426522     0.37700
C2170       C  0.40912052  0.63857815  0.68078119     0.37700
C2171       C  0.40702642  0.58596759  0.65014981     0.36100
C2172       C  0.28812926  0.65804655  0.61204143     0.36100
N2173       N  0.43195185  0.57211480  0.65776449    -0.38700
N2174       N  0.26408949  0.67274599  0.60492630    -0.38700
N2175       N  0.43418222  0.64556060  0.70084054    -0.38100
N2176       N  0.25640321  0.59856340  0.56620358    -0.38100
loop_ 
_geom_bond_atom_site_label_1 
_geom_bond_atom_site_label_2 
_geom_bond_distance 
_geom_bond_site_symmetry_2 
_ccdc_geom_bond_type 
O1           Ni7   1.930       .  S
O1           C22   1.272       .  A
O2          Ni25   1.907       .  S
O2           C11   1.268       .  A
O3           Ni7   1.896       .  S
O3          Ni25   1.895       .  S
O3          Ni19   1.902       .  S
O3           H26   0.966       .  S
C4           O21   1.273       .  A
C4           O13   1.272       .  A
C4         C2152   1.485       .  S
O5          Ni24   1.934       .  S
O5           C11   1.274       .  A
O6          Ni24   1.912       .  S
O6            C8   1.275       .  A
Ni7          O10   1.918       .  S
Ni7          O12   1.911       .  S
C8           O18   1.280       .  A
C8         C2138   1.510       .  S
O9          Ni25   1.915       .  S
O9           C15   1.278       .  A
O10          C15   1.279       .  A
C11        C2163   1.500       .  S
O12          C14   1.268       .  A
O13         Ni24   1.914       .  S
C14          O20   1.272       .  A
C14        C2121   1.490       .  S
C15        C2107   1.478       .  S
H16          O17   0.966       .  S
O17         Ni25   1.916       .  S
O17         Ni19   1.920       .  S
O17         Ni24   1.906       .  S
O18         Ni19   1.957       .  S
Ni19         O23   1.927       .  S
Ni19         O21   1.901       .  S
O20         Ni25   1.934       .  S
C22          O23   1.274       .  A
C22        C2093   1.487       .  S
O27         Ni33   1.923       .  S
O27          C48   1.270       .  A
O28         Ni51   1.907       .  S
O28          C37   1.269       .  A
O29         Ni33   1.895       .  S
O29         Ni51   1.896       .  S
O29         Ni45   1.896       .  S
O29          H52   0.966       .  S
C30          O47   1.268       .  A
C30          O39   1.271       .  A
C30        C2079   1.473       .  S
O31         Ni50   1.922       .  S
O31          C37   1.270       .  A
O32         Ni50   1.904       .  S
O32          C34   1.269       .  A
Ni33         O36   1.912       .  S
Ni33         O38   1.910       .  S
C34          O44   1.286       .  A
C34        C2065   1.514       .  S
O35         Ni51   1.920       .  S
O35          C41   1.278       .  A
O36          C41   1.277       .  A
C37        C2166   1.481       .  S
O38          C40   1.269       .  A
O39         Ni50   1.936       .  S
C40          O46   1.278       .  A
C40        C2051   1.515       .  S
C41        C2040   1.478       .  S
H42          O43   0.966       .  S
O43         Ni51   1.932       .  S
O43         Ni45   1.922       .  S
O43         Ni50   1.913       .  S
O44         Ni45   1.982       .  S
Ni45         O49   1.923       .  S
Ni45         O47   1.902       .  S
O46         Ni51   1.951       .  S
C48          O49   1.272       .  A
C48        C2023   1.483       .  S
O53         Ni59   1.924       .  S
O53          C74   1.269       .  A
O54         Ni77   1.908       .  S
O54          C63   1.269       .  A
O55         Ni59   1.907       .  S
O55         Ni77   1.905       .  S
O55         Ni71   1.894       .  S
O55          H78   0.966       .  S
C56          O73   1.264       .  A
C56          O65   1.276       .  A
C56        C2149   1.464       .  S
O57         Ni76   1.940       .  S
O57          C63   1.276       .  A
O58         Ni76   1.916       .  S
O58          C60   1.272       .  A
Ni59         O62   1.906       .  S
Ni59         O64   1.913       .  S
C60          O70   1.281       .  A
C60        C1995   1.501       .  S
O61         Ni77   1.914       .  S
O61          C67   1.278       .  A
O62          C67   1.275       .  A
C63        C2009   1.501       .  S
O64          C66   1.268       .  A
O65         Ni76   1.921       .  S
C66          O72   1.270       .  A
C66        C1981   1.490       .  S
C67        C1967   1.476       .  S
H68          O69   0.966       .  S
O69         Ni77   1.911       .  S
O69         Ni71   1.915       .  S
O69         Ni76   1.908       .  S
O70         Ni71   1.957       .  S
Ni71         O75   1.911       .  S
Ni71         O73   1.887       .  S
O72         Ni77   1.931       .  S
C74          O75   1.266       .  A
C74        C1956   1.476       .  S
O79         Ni85   1.925       .  S
O79         C100   1.271       .  A
O80        Ni103   1.903       .  S
O80          C89   1.267       .  A
O81         Ni85   1.899       .  S
O81        Ni103   1.895       .  S
O81         Ni97   1.897       .  S
O81         H104   0.966       .  S
C82          O99   1.269       .  A
C82          O91   1.275       .  A
C82        C2082   1.480       .  S
O83        Ni102   1.939       .  S
O83          C89   1.275       .  A
O84        Ni102   1.910       .  S
O84          C86   1.272       .  A
Ni85         O88   1.912       .  S
Ni85         O90   1.915       .  S
C86          O96   1.285       .  A
C86        C1928   1.513   1_554  S
O87        Ni103   1.919       .  S
O87          C93   1.277       .  A
O88          C93   1.276       .  A
C89        C2012   1.489       .  S
O90          C92   1.269       .  A
O91        Ni102   1.945   1_556  S
C92          O98   1.274       .  A
C92        C1939   1.505       .  S
C93        C1914   1.469       .  S
H94          O95   0.966       .  S
O95        Ni103   1.928       .  S
O95         Ni97   1.921       .  S
O95        Ni102   1.909       .  S
O96         Ni97   1.978       .  S
Ni97        O101   1.924       .  S
Ni97         O99   1.903   1_554  S
O98        Ni103   1.943       .  S
C100        O101   1.272       .  A
C100       C1897   1.484       .  S
O105       Ni111   1.929       .  S
O105        C126   1.270       .  A
O106       Ni129   1.932       .  S
O106        C115   1.275       .  A
O107       Ni111   1.911       .  S
O107       Ni129   1.922       .  S
O107       Ni123   1.918       .  S
O107        H130   0.966       .  S
C108        O125   1.280       .  A
C108        O117   1.279       .  A
C108       C1841   1.477       .  S
O109       Ni128   1.926       .  S
O109        C115   1.270       .  A
O110       Ni128   1.902       .  S
O110        C112   1.267       .  A
Ni111       O114   1.917       .  S
Ni111       O116   1.911       .  S
C112        O122   1.279       .  A
C112       C2135   1.517       .  S
O113       Ni129   1.908       .  S
O113        C119   1.275       .  A
O114        C119   1.273       .  A
C115       C1827   1.492       .  S
O116        C118   1.272       .  A
O117       Ni128   1.917       .  S
C118        O124   1.279       .  A
C118       C1855   1.504   1_455  S
C119       C1869   1.489       .  S
H120        O121   0.966       .  S
O121       Ni129   1.903       .  S
O121       Ni123   1.896       .  S
O121       Ni128   1.886       .  S
O122       Ni123   1.951       .  S
Ni123       O127   1.917       .  S
Ni123       O125   1.921       .  S
O124       Ni129   1.956       .  S
C126        O127   1.271       .  A
C126       C1883   1.485       .  S
O131       Ni137   1.925       .  S
O131        C152   1.271       .  A
O132       Ni155   1.922       .  S
O132        C141   1.271       .  A
O133       Ni137   1.905       .  S
O133       Ni155   1.922       .  S
O133       Ni149   1.915       .  S
O133        H156   0.965       .  S
C134        O151   1.277       .  A
C134        O143   1.279       .  A
C134       C1771   1.481       .  S
O135       Ni154   1.931       .  S
O135        C141   1.270       .  A
O136       Ni154   1.904       .  S
O136        C138   1.268       .  A
Ni137       O140   1.911       .  S
Ni137       O142   1.902       .  S
C138        O148   1.276       .  A
C138       C1799   1.501       .  S
O139       Ni155   1.911       .  S
O139        C145   1.271       .  A
O140        C145   1.270       .  A
C141       C1760   1.487       .  S
O142        C144   1.272       .  A
O143       Ni154   1.924       .  S
C144        O150   1.283       .  A
C144       C1785   1.509       .  S
C145       C1816   1.493       .  S
H146        O147   0.966       .  S
O147       Ni155   1.906       .  S
O147       Ni149   1.900       .  S
O147       Ni154   1.903       .  S
O148       Ni149   1.941       .  S
Ni149       O153   1.918       .  S
Ni149       O151   1.911       .  S
O150       Ni155   1.973       .  S
C152        O153   1.272       .  A
C152       C1886   1.498       .  S
O157       Ni163   1.935       .  S
O157        C178   1.272       .  A
O158       Ni181   1.921       .  S
O158        C167   1.271       .  A
O159       Ni163   1.905       .  S
O159       Ni181   1.917       .  S
O159       Ni175   1.913       .  S
O159        H182   0.966       .  S
C160        O177   1.279       .  A
C160        O169   1.277       .  A
C160       C2110   1.476       .  S
O161       Ni180   1.928       .  S
O161        C167   1.271       .  A
O162       Ni180   1.912       .  S
O162        C164   1.269       .  A
Ni163       O166   1.922   1_556  S
Ni163       O168   1.904       .  S
C164        O174   1.275       .  A
C164       C1729   1.501       .  S
O165       Ni181   1.902   1_554  S
O165        C171   1.270       .  A
O166        C171   1.275       .  A
C167       C1715   1.485       .  S
O168        C170   1.270   1_556  A
O169       Ni180   1.911       .  S
C170        O176   1.280   1_554  A
C170       C1984   1.498       .  S
C171       C1872   1.469       .  S
H172        O173   0.966       .  S
O173       Ni181   1.902       .  S
O173       Ni175   1.901       .  S
O173       Ni180   1.894       .  S
O174       Ni175   1.945       .  S
Ni175       O179   1.910       .  S
Ni175       O177   1.922       .  S
O176       Ni181   1.955       .  S
C178        O179   1.270       .  A
C178       C1743   1.491       .  S
O183       Ni189   1.928       .  S
O183        C204   1.271       .  A
O184       Ni207   1.925       .  S
O184        C193   1.274       .  A
O185       Ni189   1.905       .  S
O185       Ni207   1.918       .  S
O185       Ni201   1.910       .  S
O185        H208   0.967       .  S
C186        O203   1.274       .  A
C186        O195   1.277       .  A
C186       C1673   1.479       .  S
O187       Ni206   1.926       .  S
O187        C193   1.273       .  A
O188       Ni206   1.916       .  S
O188        C190   1.268       .  A
Ni189       O192   1.913       .  S
Ni189       O194   1.904       .  S
C190        O200   1.275       .  A
C190       C1687   1.496       .  S
O191       Ni207   1.912       .  S
O191        C197   1.270       .  A
O192        C197   1.270       .  A
C193       C1662   1.493       .  S
O194        C196   1.273       .  A
O195       Ni206   1.915       .  S
C196        O202   1.287       .  A
C196       C1701   1.513       .  S
C197       C1813   1.474       .  S
H198        O199   0.966       .  S
O199       Ni207   1.902       .  S
O199       Ni201   1.897       .  S
O199       Ni206   1.902       .  S
O200       Ni201   1.943       .  S
Ni201       O205   1.906       .  S
Ni201       O203   1.904       .  S
O202       Ni207   1.980       .  S
C204        O205   1.267       .  A
C204       C1746   1.481       .  S
O209       Ni215   1.927       .  S
O209        C230   1.273       .  A
O210       Ni233   1.911       .  S
O210        C219   1.271       .  A
O211       Ni215   1.893       .  S
O211       Ni233   1.894       .  S
O211       Ni227   1.900       .  S
O211        H234   0.966       .  S
C212        O229   1.270       .  A
C212        O221   1.270       .  A
C212       C1631   1.481       .  S
O213       Ni232   1.926       .  S
O213        C219   1.272       .  A
O214       Ni232   1.901       .  S
O214        C216   1.271       .  A
Ni215       O218   1.915       .  S
Ni215       O220   1.908       .  S
C216        O226   1.282       .  A
C216       C1802   1.504       .  S
O217       Ni233   1.907       .  S
O217        C223   1.276       .  A
O218        C223   1.278       .  A
C219       C1648   1.493       .  S
O220        C222   1.268       .  A
O221       Ni232   1.919       .  S
C222        O228   1.278       .  A
C222       C1617   1.501       .  S
C223       C1676   1.477       .  S
H224        O225   0.967       .  S
O225       Ni233   1.912       .  S
O225       Ni227   1.915       .  S
O225       Ni232   1.903       .  S
O226       Ni227   1.969       .  S
Ni227       O231   1.913       .  S
Ni227       O229   1.912       .  S
O228       Ni233   1.946       .  S
C230        O231   1.270       .  A
C230       C1953   1.483       .  S
O235       Ni241   1.932       .  S
O235        C256   1.275       .  A
O236       Ni259   1.900       .  S
O236        C245   1.265       .  A
O237       Ni241   1.895       .  S
O237       Ni259   1.885   1_565  S
O237       Ni253   1.908       .  S
O237        H260   0.966       .  S
C238        O255   1.278       .  A
C238        O247   1.272   1_565  A
C238       C1606   1.506       .  S
O239       Ni258   1.936       .  S
O239        C245   1.272       .  A
O240       Ni258   1.913       .  S
O240        C242   1.274       .  A
Ni241       O244   1.922       .  S
Ni241       O246   1.915       .  S
C242        O252   1.281   1_545  A
C242       C1589   1.504   1_544  S
O243       Ni259   1.911       .  S
O243        C249   1.275   1_545  A
O244        C249   1.280       .  A
C245       C1645   1.481       .  S
O246        C248   1.267       .  A
O247       Ni258   1.919   1_556  S
C248        O254   1.277   1_565  A
C248       C1578   1.496       .  S
C249       C1561   1.485       .  S
H250        O251   0.966       .  S
O251       Ni259   1.920       .  S
O251       Ni253   1.923   1_545  S
O251       Ni258   1.908       .  S
O252       Ni253   1.958       .  S
Ni253       O257   1.922       .  S
Ni253       O255   1.926   1_554  S
O254       Ni259   1.945       .  S
C256        O257   1.276       .  A
C256       C1900   1.488       .  S
O261       Ni267   1.933       .  S
O261        C282   1.273       .  A
O262       Ni285   1.908       .  S
O262        C271   1.269       .  A
O263       Ni267   1.897       .  S
O263       Ni285   1.902       .  S
O263       Ni279   1.903       .  S
O263        H286   0.966       .  S
C264        O281   1.271       .  A
C264        O273   1.274       .  A
C264       C1634   1.488       .  S
O265       Ni284   1.939       .  S
O265        C271   1.274       .  A
O266       Ni284   1.912       .  S
O266        C268   1.273       .  A
Ni267       O270   1.920       .  S
Ni267       O272   1.907       .  S
C268        O278   1.285       .  A
C268       C1536   1.516       .  S
O269       Ni285   1.904       .  S
O269        C275   1.273       .  A
O270        C275   1.279       .  A
C271       C1547   1.488       .  S
O272        C274   1.268       .  A
O273       Ni284   1.924       .  S
C274        O280   1.279       .  A
C274       C1704   1.512       .  S
C275       C1519   1.471       .  S
H276        O277   0.966       .  S
O277       Ni285   1.910       .  S
O277       Ni279   1.916       .  S
O277       Ni284   1.906       .  S
O278       Ni279   1.980       .  S
Ni279       O283   1.922       .  S
Ni279       O281   1.910       .  S
O280       Ni285   1.948       .  S
C282        O283   1.272       .  A
C282       C2096   1.490       .  S
O287       Ni293   1.933       .  S
O287        C308   1.273       .  A
O288       Ni311   1.910       .  S
O288        C297   1.270       .  A
O289       Ni293   1.904       .  S
O289       Ni311   1.902   1_565  S
O289       Ni305   1.903       .  S
O289        H312   0.967       .  S
C290        O307   1.267       .  A
C290        O299   1.276   1_565  A
C290       C1603   1.479       .  S
O291       Ni310   1.945       .  S
O291        C297   1.276       .  A
O292       Ni310   1.907       .  S
O292        C294   1.271       .  A
Ni293       O296   1.920       .  S
Ni293       O298   1.909       .  S
C294        O304   1.284   1_545  A
C294       C1491   1.496       .  S
O295       Ni311   1.923       .  S
O295        C301   1.279   1_545  A
O296        C301   1.278       .  A
C297       C1550   1.503       .  S
O298        C300   1.269       .  A
O299       Ni310   1.931       .  S
C300        O306   1.274   1_565  A
C300       C1505   1.503       .  S
C301       C1477   1.481       .  S
H302        O303   0.965       .  S
O303       Ni311   1.921       .  S
O303       Ni305   1.921   1_545  S
O303       Ni310   1.912       .  S
O304       Ni305   1.964       .  S
Ni305       O309   1.917       .  S
Ni305       O307   1.902       .  S
O306       Ni311   1.940       .  S
C308        O309   1.270       .  A
C308       C2026   1.491       .  S
O313       Ni319   1.943       .  S
O313        C334   1.275       .  A
O314       Ni337   1.915       .  S
O314        C323   1.269       .  A
O315       Ni319   1.913       .  S
O315       Ni337   1.919   1_565  S
O315       Ni331   1.916       .  S
O315        H338   0.966       .  S
C316        O333   1.279   1_545  A
C316        O325   1.279       .  A
C316       C1480   1.480       .  S
O317       Ni336   1.935       .  S
O317        C323   1.273       .  A
O318       Ni336   1.912       .  S
O318        C320   1.269       .  A
Ni319       O322   1.925       .  S
Ni319       O324   1.911       .  S
C320        O330   1.276   1_545  A
C320       C1435   1.506       .  S
O321       Ni337   1.899       .  S
O321        C327   1.267       .  A
O322        C327   1.276   1_565  A
C323       C1421   1.484       .  S
O324        C326   1.271       .  A
O325       Ni336   1.921       .  S
C326        O332   1.280   1_565  A
C326       C1575   1.494       .  S
C327       C1449   1.475       .  S
H328        O329   0.966       .  S
O329       Ni337   1.900       .  S
O329       Ni331   1.901   1_545  S
O329       Ni336   1.902       .  S
O330       Ni331   1.941       .  S
Ni331       O335   1.914       .  S
Ni331       O333   1.919       .  S
O332       Ni337   1.956       .  S
C334        O335   1.271       .  A
C334       C1463   1.504       .  S
O339       Ni345   1.942       .  S
O339        C360   1.275       .  A
O340       Ni363   1.931       .  S
O340        C349   1.274       .  A
O341       Ni345   1.909       .  S
O341       Ni363   1.921       .  S
O341       Ni357   1.917       .  S
O341        H364   0.966       .  S
C342        O359   1.279       .  A
C342        O351   1.277       .  A
C342       C1911   1.469       .  S
O343       Ni362   1.923       .  S
O343        C349   1.269       .  A
O344       Ni362   1.907       .  S
O344        C346   1.267       .  A
Ni345       O348   1.922       .  S
Ni345       O350   1.917       .  S
C346        O356   1.277       .  A
C346       C1396   1.502       .  S
O347       Ni363   1.905       .  S
O347        C353   1.274       .  A
O348        C353   1.274       .  A
C349       C1379   1.487       .  S
O350        C352   1.275       .  A
O351       Ni362   1.913       .  S
C352        O358   1.280       .  A
C352       C2054   1.513       .  S
C353       C1407   1.488       .  S
H354        O355   0.966       .  S
O355       Ni363   1.904       .  S
O355       Ni357   1.897       .  S
O355       Ni362   1.896       .  S
O356       Ni357   1.949       .  S
Ni357       O361   1.915       .  S
Ni357       O359   1.922       .  S
O358       Ni363   1.958       .  S
C360        O361   1.271       .  A
C360       C1466   1.492       .  S
O365       Ni371   1.924       .  S
O365        C386   1.270       .  A
O366       Ni389   1.924       .  S
O366        C375   1.275       .  A
O367       Ni371   1.906       .  S
O367       Ni389   1.925   1_565  S
O367       Ni383   1.915       .  S
O367        H390   0.966       .  S
C368        O385   1.276   1_545  A
C368        O377   1.279       .  A
C368       C1337   1.488       .  S
O369       Ni388   1.930       .  S
O369        C375   1.275       .  A
O370       Ni388   1.916       .  S
O370        C372   1.268       .  A
Ni371       O374   1.906   1_556  S
Ni371       O376   1.914       .  S
C372        O382   1.275   1_545  A
C372       C1494   1.496       .  S
O373       Ni389   1.917   1_554  S
O373        C379   1.275   1_545  A
O374        C379   1.269       .  A
C375       C1323   1.492       .  S
O376        C378   1.273       .  A
O377       Ni388   1.918       .  S
C378        O384   1.280   1_565  A
C378       C1351   1.501   1_556  S
C379       C1452   1.497   1_565  S
H380        O381   0.966       .  S
O381       Ni389   1.902       .  S
O381       Ni383   1.890   1_545  S
O381       Ni388   1.894       .  S
O382       Ni383   1.945       .  S
Ni383       O387   1.905       .  S
Ni383       O385   1.912       .  S
O384       Ni389   1.955       .  S
C386        O387   1.267       .  A
C386       C1365   1.498       .  S
O391       Ni397   1.926       .  S
O391        C412   1.270       .  A
O392       Ni415   1.916       .  S
O392        C401   1.269       .  A
O393       Ni397   1.903       .  S
O393       Ni415   1.915       .  S
O393       Ni409   1.911       .  S
O393        H416   0.966       .  S
C394        O411   1.278       .  A
C394        O403   1.275       .  A
C394       C1295   1.459       .  S
O395       Ni414   1.926       .  S
O395        C401   1.270       .  A
O396       Ni414   1.910       .  S
O396        C398   1.269       .  A
Ni397       O400   1.918       .  S
Ni397       O402   1.906       .  S
C398        O408   1.277       .  A
C398       C1925   1.510       .  S
O399       Ni415   1.900       .  S
O399        C405   1.269       .  A
O400        C405   1.274       .  A
C401       C1281   1.480       .  S
O402        C404   1.270       .  A
O403       Ni414   1.905       .  S
C404        O410   1.280       .  A
C404       C1312   1.501       .  S
C405       C1410   1.465       .  S
H406        O407   0.966       .  S
O407       Ni415   1.899       .  S
O407       Ni409   1.899       .  S
O407       Ni414   1.895       .  S
O408       Ni409   1.950       .  S
Ni409       O413   1.911       .  S
Ni409       O411   1.915       .  S
O410       Ni415   1.959       .  S
C412        O413   1.269       .  A
C412       C1368   1.480       .  S
O417       Ni423   1.923       .  S
O417        C438   1.268       .  A
O418       Ni441   1.905       .  S
O418        C427   1.267       .  A
O419       Ni423   1.908       .  S
O419       Ni441   1.902       .  S
O419       Ni435   1.897       .  S
O419        H442   0.966       .  S
C420        O437   1.266       .  A
C420        O429   1.273       .  A
C420       C1256   1.459       .  S
O421       Ni440   1.931       .  S
O421        C427   1.271       .  A
O422       Ni440   1.905       .  S
O422        C424   1.270       .  A
Ni423       O426   1.905       .  S
Ni423       O428   1.911       .  S
C424        O434   1.281       .  A
C424       C1393   1.511       .  S
O425       Ni441   1.908       .  S
O425        C431   1.275       .  A
O426        C431   1.274       .  A
C427       C1267   1.492       .  S
O428        C430   1.268       .  A
O429       Ni440   1.919       .  S
C430        O436   1.272       .  A
C430       C1239   1.497       .  S
C431       C1298   1.460       .  S
H432        O433   0.966       .  S
O433       Ni441   1.910       .  S
O433       Ni435   1.921       .  S
O433       Ni440   1.907       .  S
O434       Ni435   1.964       .  S
Ni435       O439   1.915       .  S
Ni435       O437   1.890       .  S
O436       Ni441   1.936       .  S
C438        O439   1.268       .  A
C438       C1225   1.477       .  S
O443       Ni449   1.921       .  S
O443        C464   1.268       .  A
O444       Ni467   1.910       .  S
O444        C453   1.270       .  A
O445       Ni449   1.896       .  S
O445       Ni467   1.893       .  S
O445       Ni461   1.895       .  S
O445        H468   0.967       .  S
C446        O463   1.265       .  A
C446        O455   1.271       .  A
C446       C1211   1.473       .  S
O447       Ni466   1.923       .  S
O447        C453   1.271       .  A
O448       Ni466   1.898       .  S
O448        C450   1.270       .  A
Ni449       O452   1.913       .  S
Ni449       O454   1.904       .  S
C450        O460   1.290       .  A
C450       C1197   1.501   1_554  S
O451       Ni467   1.922       .  S
O451        C457   1.281       .  A
O452        C457   1.277       .  A
C453       C1270   1.485       .  S
O454        C456   1.267       .  A
O455       Ni466   1.937   1_556  S
C456        O462   1.274       .  A
C456       C1858   1.503       .  S
C457       C1186   1.485       .  S
H458        O459   0.949       .  S
O459       Ni467   1.937       .  S
O459       Ni461   1.922       .  S
O459       Ni466   1.912       .  S
O460       Ni461   1.985       .  S
Ni461       O465   1.931       .  S
Ni461       O463   1.900   1_554  S
O462       Ni467   1.941       .  S
C464        O465   1.274       .  A
C464       C1169   1.488       .  S
O469       Ni475   1.930       .  S
O469        C490   1.272       .  A
O470       Ni493   1.910       .  S
O470        C479   1.270       .  A
O471       Ni475   1.896       .  S
O471       Ni493   1.896       .  S
O471       Ni487   1.888       .  S
O471        H494   0.966       .  S
C472        O489   1.264       .  A
C472        O481   1.273       .  A
C472       C1214   1.475       .  S
O473       Ni492   1.926       .  S
O473        C479   1.272       .  A
O474       Ni492   1.903       .  S
O474        C476   1.269   1_655  A
Ni475       O478   1.918       .  S
Ni475       O480   1.910       .  S
C476        O486   1.286   1_455  A
C476       C1732   1.505       .  S
O477       Ni493   1.915       .  S
O477        C483   1.278       .  A
O478        C483   1.278       .  A
C479       C1158   1.501       .  S
O480        C482   1.269       .  A
O481       Ni492   1.941       .  S
C482        O488   1.275       .  A
C482       C1144   1.509       .  S
C483       C1844   1.474   1_655  S
H484        O485   0.967       .  S
O485       Ni493   1.930       .  S
O485       Ni487   1.922       .  S
O485       Ni492   1.910       .  S
O486       Ni487   1.981       .  S
Ni487       O491   1.918       .  S
Ni487       O489   1.895       .  S
O488       Ni493   1.945       .  S
C490        O491   1.270       .  A
C490       C1130   1.486       .  S
O495       Ni501   1.937       .  S
O495        C516   1.273       .  A
O496       Ni519   1.908       .  S
O496        C505   1.268       .  A
O497       Ni501   1.905       .  S
O497       Ni519   1.900       .  S
O497       Ni513   1.905       .  S
O497        H520   0.966       .  S
C498        O515   1.272       .  A
C498        O507   1.269       .  A
C498       C1253   1.485       .  S
O499       Ni518   1.927       .  S
O499        C505   1.270       .  A
O500       Ni518   1.907       .  S
O500        C502   1.273   1_655  A
Ni501       O504   1.926       .  S
Ni501       O506   1.909       .  S
C502        O512   1.280   1_455  A
C502       C1113   1.507       .  S
O503       Ni519   1.913       .  S
O503        C509   1.277       .  A
O504        C509   1.279       .  A
C505       C1155   1.486       .  S
O506        C508   1.268       .  A
O507       Ni518   1.911       .  S
C508        O514   1.274       .  A
C508       C1309   1.495       .  S
C509       C1102   1.478       .  S
H510        O511   0.966       .  S
O511       Ni519   1.919       .  S
O511       Ni513   1.924       .  S
O511       Ni518   1.912       .  S
O512       Ni513   1.960       .  S
Ni513       O517   1.921       .  S
Ni513       O515   1.906       .  S
O514       Ni519   1.940       .  S
C516        O517   1.271       .  A
C516       C1085   1.487       .  S
O521       Ni527   1.928       .  S
O521        C542   1.269       .  A
O522       Ni545   1.925       .  S
O522        C531   1.274       .  A
O523       Ni527   1.904       .  S
O523       Ni545   1.925       .  S
O523       Ni539   1.912       .  S
O523        H546   0.966       .  S
C524        O541   1.277       .  A
C524        O533   1.280       .  A
C524       C1183   1.490       .  S
O525       Ni544   1.932       .  S
O525        C531   1.274       .  A
O526       Ni544   1.914       .  S
O526        C528   1.268       .  A
Ni527       O530   1.900       .  S
Ni527       O532   1.916       .  S
C528        O538   1.279       .  A
C528       C1998   1.501       .  S
O529       Ni545   1.916       .  S
O529        C535   1.276       .  A
O530        C535   1.269       .  A
C531       C1382   1.490       .  S
O532        C534   1.274       .  A
O533       Ni544   1.921       .  S
C534        O540   1.278       .  A
C534       C1141   1.505       .  S
C535       C1060   1.488       .  S
H536        O537   0.966       .  S
O537       Ni545   1.909       .  S
O537       Ni539   1.897       .  S
O537       Ni544   1.896       .  S
O538       Ni539   1.953       .  S
Ni539       O543   1.919       .  S
Ni539       O541   1.916       .  S
O540       Ni545   1.955       .  S
C542        O543   1.270       .  A
C542       C1074   1.487       .  S
O547       Ni553   1.932       .  S
O547        C568   1.274       .  A
O548       Ni571   1.923       .  S
O548        C557   1.272       .  A
O549       Ni553   1.903       .  S
O549       Ni571   1.914       .  S
O549       Ni565   1.903       .  S
O549        H572   0.967       .  S
C550        O567   1.275       .  A
C550        O559   1.278       .  A
C550       C1015   1.469       .  S
O551       Ni570   1.927       .  S
O551        C557   1.272       .  A
O552       Ni570   1.916       .  S
O552        C554   1.270       .  A
Ni553       O556   1.921       .  S
Ni553       O558   1.914       .  S
C554        O564   1.279       .  A
C554       C1533   1.513       .  S
O555       Ni571   1.908       .  S
O555        C561   1.273       .  A
O556        C561   1.275       .  A
C557       C1424   1.484       .  S
O558        C560   1.272       .  A
O559       Ni570   1.917       .  S
C560        O566   1.281       .  A
C560       C1029   1.509       .  S
C561       C1046   1.486       .  S
H562        O563   0.966       .  S
O563       Ni571   1.903       .  S
O563       Ni565   1.898       .  S
O563       Ni570   1.895       .  S
O564       Ni565   1.948       .  S
Ni565       O569   1.916       .  S
Ni565       O567   1.902       .  S
O566       Ni571   1.966       .  S
C568        O569   1.272       .  A
C568       C1071   1.506       .  S
O573       Ni579   1.929       .  S
O573        C594   1.271       .  A
O574       Ni597   1.913       .  S
O574        C583   1.266       .  A
O575       Ni579   1.908       .  S
O575       Ni597   1.919       .  S
O575       Ni591   1.918       .  S
O575        H598   0.966       .  S
C576        O593   1.281       .  A
C576        O585   1.276       .  A
C576       C1970   1.474       .  S
O577       Ni596   1.929       .  S
O577        C583   1.270       .  A
O578       Ni596   1.909       .  S
O578        C580   1.269       .  A
Ni579       O582   1.922       .  S
Ni579       O584   1.899       .  S
C580        O590   1.273       .  A
C580       C1200   1.497       .  S
O581       Ni597   1.888       .  S
O581        C587   1.264       .  A
O582        C587   1.273       .  A
C583       C1284   1.480       .  S
O584        C586   1.269       .  A
O585       Ni596   1.905       .  S
C586        O592   1.281       .  A
C586       C2124   1.496       .  S
C587       C1057   1.466       .  S
H588        O589   0.966       .  S
O589       Ni597   1.893       .  S
O589       Ni591   1.903       .  S
O589       Ni596   1.901       .  S
O590       Ni591   1.938       .  S
Ni591       O595   1.916       .  S
Ni591       O593   1.922       .  S
O592       Ni597   1.958       .  S
C594        O595   1.272       .  A
C594       C1001   1.492       .  S
O599       Ni605   1.935       .  S
O599        C620   1.272       .  A
O600       Ni623   1.926       .  S
O600        C609   1.273       .  A
O601       Ni605   1.904       .  S
O601       Ni623   1.917       .  S
O601       Ni617   1.907       .  S
O601        H624   0.966       .  S
C602        O619   1.274       .  A
C602        O611   1.279       .  A
C602       C1522   1.472       .  S
O603       Ni622   1.927       .  S
O603        C609   1.270       .  A
O604       Ni622   1.910       .  S
O604        C606   1.268       .  A
Ni605       O608   1.920   1_556  S
Ni605       O610   1.913       .  S
C606        O616   1.278       .  A
C606        C987   1.515       .  S
O607       Ni623   1.913   1_554  S
O607        C613   1.274       .  A
O608        C613   1.274       .  A
C609       C1326   1.484       .  S
O610        C612   1.272   1_556  A
O611       Ni622   1.924       .  S
C612        O618   1.280   1_554  A
C612       C1620   1.506       .  S
C613       C1043   1.488       .  S
H614        O615   0.966       .  S
O615       Ni623   1.909       .  S
O615       Ni617   1.897       .  S
O615       Ni622   1.894       .  S
O616       Ni617   1.947       .  S
Ni617       O621   1.909       .  S
Ni617       O619   1.904       .  S
O618       Ni623   1.967       .  S
C620        O621   1.269       .  A
C620       C1004   1.484       .  S
O625       Ni631   1.930       .  S
O625        C646   1.271       .  A
O626       Ni649   1.919       .  S
O626        C635   1.269       .  A
O627       Ni631   1.910       .  S
O627       Ni649   1.924   1_565  S
O627       Ni643   1.919       .  S
O627        H650   0.966       .  S
C628        O645   1.275   1_545  A
C628        O637   1.277       .  A
C628        C931   1.474   1_545  S
O629       Ni648   1.927       .  S
O629        C635   1.270       .  A
O630       Ni648   1.913       .  S
O630        C632   1.270       .  A
Ni631       O634   1.927       .  S
Ni631       O636   1.910       .  S
C632        O642   1.274   1_545  A
C632       C1592   1.505       .  S
O633       Ni649   1.895       .  S
O633        C639   1.266   1_545  A
O634        C639   1.272       .  A
C635       C1659   1.482       .  S
O636        C638   1.271       .  A
O637       Ni648   1.914       .  S
C638        O644   1.281   1_565  A
C638        C948   1.515       .  S
C639        C959   1.460       .  S
H640        O641   0.966       .  S
O641       Ni649   1.897       .  S
O641       Ni643   1.899   1_545  S
O641       Ni648   1.901       .  S
O642       Ni643   1.936       .  S
Ni643       O647   1.906       .  S
Ni643       O645   1.910       .  S
O644       Ni649   1.968       .  S
C646        O647   1.267       .  A
C646        C973   1.481       .  S
O651       Ni657   1.936       .  S
O651        C672   1.274       .  A
O652       Ni675   1.922       .  S
O652        C661   1.272       .  A
O653       Ni657   1.908       .  S
O653       Ni675   1.920       .  S
O653       Ni669   1.918       .  S
O653        H676   0.967       .  S
C654        O671   1.277       .  A
C654        O663   1.277       .  A
C654       C1099   1.473       .  S
O655       Ni674   1.932       .  S
O655        C661   1.273       .  A
O656       Ni674   1.913       .  S
O656        C658   1.269       .  A
Ni657       O660   1.937   1_556  S
Ni657       O662   1.900       .  S
C658        O668   1.275       .  A
C658       C2068   1.506       .  S
O659       Ni675   1.898   1_554  S
O659        C665   1.268       .  A
O660        C665   1.274       .  A
C661       C1718   1.490       .  S
O662        C664   1.268   1_556  A
O663       Ni674   1.915       .  S
C664        O670   1.284   1_554  A
C664       C1242   1.502       .  S
C665        C917   1.469       .  S
H666        O667   0.966       .  S
O667       Ni675   1.899       .  S
O667       Ni669   1.899       .  S
O667       Ni674   1.899       .  S
O668       Ni669   1.943       .  S
Ni669       O673   1.905       .  S
Ni669       O671   1.922       .  S
O670       Ni675   1.975       .  S
C672        O673   1.268       .  A
C672        C976   1.487       .  S
O677       Ni683   1.924       .  S
O677        C698   1.268       .  A
O678       Ni701   1.928       .  S
O678        C687   1.273       .  A
O679       Ni683   1.909       .  S
O679       Ni701   1.918   1_565  S
O679       Ni695   1.911       .  S
O679        H702   0.966       .  S
C680        O697   1.277   1_545  A
C680        O689   1.280       .  A
C680       C1564   1.482       .  S
O681       Ni700   1.925       .  S
O681        C687   1.270       .  A
O682       Ni700   1.901       .  S
O682        C684   1.266       .  A
Ni683       O686   1.909       .  S
Ni683       O688   1.907       .  S
C684        O694   1.275   1_545  A
C684        C889   1.500       .  S
O685       Ni701   1.904       .  S
O685        C691   1.275   1_545  A
O686        C691   1.272       .  A
C687       C1757   1.488       .  S
O688        C690   1.271       .  A
O689       Ni700   1.921       .  S
C690        O696   1.278   1_565  A
C690       C1508   1.499       .  S
C691        C962   1.477       .  S
H692        O693   0.966       .  S
O693       Ni701   1.905       .  S
O693       Ni695   1.895   1_545  S
O693       Ni700   1.894       .  S
O694       Ni695   1.943       .  S
Ni695       O699   1.909       .  S
Ni695       O697   1.908       .  S
O696       Ni701   1.951       .  S
C698        O699   1.267       .  A
C698        C903   1.480       .  S
O703       Ni709   1.913       .  S
O703        C724   1.269       .  A
O704       Ni727   1.922       .  S
O704        C713   1.271       .  A
O705       Ni709   1.912       .  S
O705       Ni727   1.921       .  S
O705       Ni721   1.939       .  S
O705        H728   0.966       .  S
C706        O723   1.282       .  A
C706        O715   1.278       .  A
C706       C2037   1.477       .  S
O707       Ni726   1.932       .  S
O707        C713   1.272       .  A
O708       Ni726   1.911       .  S
O708        C710   1.269       .  A
Ni709       O712   1.935       .  S
Ni709       O714   1.900       .  S
C710        O720   1.275       .  A
C710       C1116   1.508       .  S
O711       Ni727   1.894       .  S
O711        C717   1.262       .  A
O712        C717   1.269       .  A
C713       C1830   1.489       .  S
O714        C716   1.270       .  A
O715       Ni726   1.914       .  S
C716        O722   1.291       .  A
C716       C1942   1.511       .  S
C717        C920   1.470       .  S
H718        O719   0.967       .  S
O719       Ni727   1.886       .  S
O719       Ni721   1.897       .  S
O719       Ni726   1.897       .  S
O720       Ni721   1.945       .  S
Ni721       O725   1.919       .  S
Ni721       O723   1.926       .  S
O722       Ni727   1.992       .  S
C724        O725   1.273       .  A
C724        C906   1.497       .  S
O729       Ni735   1.925       .  S
O729        C750   1.272       .  A
O730       Ni753   1.903       .  S
O730        C739   1.268       .  A
O731       Ni735   1.889       .  S
O731       Ni753   1.890       .  S
O731       Ni747   1.897       .  S
O731        H754   0.966       .  S
C732        O749   1.272       .  A
C732        O741   1.271       .  A
C732        C864   1.495       .  S
O733       Ni752   1.928       .  S
O733        C739   1.271       .  A
O734       Ni752   1.911       .  S
O734        C736   1.273       .  A
Ni735       O738   1.915       .  S
Ni735       O740   1.910       .  S
C736        O746   1.281       .  A
C736        C990   1.508       .  S
O737       Ni753   1.908       .  S
O737        C743   1.276       .  A
O738        C743   1.279       .  A
C739        C875   1.496       .  S
O740        C742   1.268       .  A
O741       Ni752   1.909       .  S
C742        O748   1.277       .  A
C742       C1788   1.511       .  S
C743       C1018   1.469       .  S
H744        O745   0.966       .  S
O745       Ni753   1.914       .  S
O745       Ni747   1.925       .  S
O745       Ni752   1.906       .  S
O746       Ni747   1.960       .  S
Ni747       O751   1.922       .  S
Ni747       O749   1.908       .  S
O748       Ni753   1.948       .  S
C750        O751   1.273       .  A
C750       C1127   1.484       .  S
O755       Ni761   1.924       .  S
O755        C776   1.270       .  A
O756       Ni779   1.909       .  S
O756        C765   1.271       .  A
O757       Ni761   1.889       .  S
O757       Ni779   1.895   1_565  S
O757       Ni773   1.902       .  S
O757        H780   0.966       .  S
C758        O775   1.272   1_545  A
C758        O767   1.271       .  A
C758        C850   1.483       .  S
O759       Ni778   1.921       .  S
O759        C765   1.270       .  A
O760       Ni778   1.906       .  S
O760        C762   1.271       .  A
Ni761       O764   1.909       .  S
Ni761       O766   1.901       .  S
C762        O772   1.283   1_545  A
C762       C1438   1.511       .  S
O763       Ni779   1.922       .  S
O763        C769   1.279   1_545  A
O764        C769   1.277       .  A
C765        C878   1.477       .  S
O766        C768   1.267       .  A
O767       Ni778   1.917       .  S
C768        O774   1.280   1_565  A
C768        C945   1.515       .  S
C769       C1340   1.489       .  S
H770        O771   0.967       .  S
O771       Ni779   1.914       .  S
O771       Ni773   1.915   1_545  S
O771       Ni778   1.904       .  S
O772       Ni773   1.972       .  S
Ni773       O777   1.922       .  S
Ni773       O775   1.913       .  S
O774       Ni779   1.961       .  S
C776        O777   1.272       .  A
C776       C1088   1.483       .  S
O781       Ni787   1.934       .  S
O781        C802   1.276       .  A
O782       Ni805   1.904       .  S
O782        C791   1.267       .  A
O783       Ni787   1.900       .  S
O783       Ni805   1.900       .  S
O783       Ni799   1.906       .  S
O783        H806   0.966       .  S
C784        O801   1.270       .  A
C784        O793   1.274       .  A
C784        C861   1.471       .  S
O785       Ni804   1.935       .  S
O785        C791   1.272       .  A
O786       Ni804   1.905       .  S
O786        C788   1.270   1_554  A
Ni787       O790   1.920       .  S
Ni787       O792   1.914       .  S
C788        O798   1.284   1_556  A
C788       C1690   1.497   1_655  S
O789       Ni805   1.909       .  S
O789        C795   1.274       .  A
O790        C795   1.279       .  A
C791        C836   1.484       .  S
O792        C794   1.269       .  A
O793       Ni804   1.916   1_556  S
C794        O800   1.276       .  A
C794       C1032   1.507       .  S
C795       C1774   1.481   1_655  S
H796        O797   0.966       .  S
O797       Ni805   1.908       .  S
O797       Ni799   1.917       .  S
O797       Ni804   1.908       .  S
O798       Ni799   1.969       .  S
Ni799       O803   1.926       .  S
Ni799       O801   1.902   1_554  S
O800       Ni805   1.943       .  S
C802        O803   1.274       .  A
C802       C1172   1.502       .  S
O807       Ni813   1.924       .  S
O807        C828   1.271       .  A
O808       Ni831   1.906       .  S
O808        C817   1.269       .  A
O809       Ni813   1.896       .  S
O809       Ni831   1.894   1_565  S
O809       Ni825   1.903       .  S
O809        H832   0.966       .  S
C810        O827   1.271   1_545  A
C810        O819   1.274       .  A
C810        C847   1.486       .  S
O811       Ni830   1.935       .  S
O811        C817   1.274       .  A
O812       Ni830   1.909       .  S
O812        C814   1.273       .  A
Ni813       O816   1.917       .  S
Ni813       O818   1.913       .  S
C814        O824   1.279   1_545  A
C814        C892   1.503   1_655  S
O815       Ni831   1.911       .  S
O815        C821   1.277   1_545  A
O816        C821   1.277       .  A
C817        C833   1.502       .  S
O818        C820   1.269       .  A
O819       Ni830   1.920       .  S
C820        O826   1.275   1_565  A
C820       C1354   1.505       .  S
C821        C934   1.477   1_655  S
H822        O823   0.966       .  S
O823       Ni831   1.910       .  S
O823       Ni825   1.915   1_545  S
O823       Ni830   1.900       .  S
O824       Ni825   1.962       .  S
Ni825       O829   1.917       .  S
Ni825       O827   1.910       .  S
O826       Ni831   1.939       .  S
C828        O829   1.270       .  A
C828       C1228   1.483       .  S
C833        C834   1.421       .  A
C833        C838   1.422       .  A
C834        C835   1.413       .  A
C834        C839   1.451       .  S
C835        C836   1.410       .  A
C835        C842   1.453       .  S
C836        C837   1.409       .  A
C837        C838   1.414       .  A
C837        C840   1.452   1_655  S
C838        C841   1.451   1_655  S
C839        N846   1.157       .  T
C840        N845   1.157       .  T
C841        N843   1.157       .  T
C842        N844   1.157       .  T
C847        C848   1.415       .  A
C847        C852   1.417   1_545  A
C848        C849   1.397       .  A
C848        C853   1.456       .  S
C849        C850   1.416       .  A
C849        C856   1.456       .  S
C850        C851   1.415   1_545  A
C851        C852   1.416       .  A
C851        C854   1.450       .  S
C852        C855   1.451       .  S
C853        N860   1.157       .  T
C854        N859   1.158       .  T
C855        N857   1.158       .  T
C856        N858   1.158       .  T
C861        C862   1.404       .  A
C861        C866   1.412       .  A
C862        C863   1.401       .  A
C862        C867   1.454       .  S
C863        C864   1.426       .  A
C863        C870   1.455       .  S
C864        C865   1.418       .  A
C865        C866   1.413       .  A
C865        C868   1.450       .  S
C866        C869   1.452       .  S
C867        N874   1.157       .  T
C868        N873   1.157       .  T
C869        N871   1.157       .  T
C870        N872   1.158       .  T
C875        C876   1.422       .  A
C875        C880   1.419       .  A
C876        C877   1.412       .  A
C876        C881   1.451       .  S
C877        C878   1.407       .  A
C877        C884   1.452       .  S
C878        C879   1.410       .  A
C879        C880   1.411       .  A
C879        C882   1.452       .  S
C880        C883   1.451       .  S
C881        N888   1.157       .  T
C882        N887   1.157       .  T
C883        N885   1.157       .  T
C884        N886   1.157       .  T
C889        C890   1.421       .  A
C889        C894   1.412   1_545  A
C890        C891   1.412       .  A
C890        C895   1.453       .  S
C891        C892   1.412       .  A
C891        C898   1.452       .  S
C892        C893   1.422   1_545  A
C893        C894   1.419       .  A
C893        C896   1.446   1_455  S
C894        C897   1.451       .  S
C895        N902   1.157       .  T
C896        N901   1.156       .  T
C897        N899   1.158       .  T
C898        N900   1.157       .  T
C903        C904   1.412       .  A
C903        C908   1.407       .  A
C904        C905   1.412       .  A
C904        C909   1.453       .  S
C905        C906   1.416       .  A
C905        C912   1.450       .  S
C906        C907   1.424       .  A
C907        C908   1.412       .  A
C907        C910   1.452       .  S
C908        C911   1.452       .  S
C909        N916   1.157       .  T
C910        N915   1.158       .  T
C911        N913   1.157       .  T
C912        N914   1.157       .  T
C917        C918   1.404       .  A
C917        C922   1.413       .  A
C918        C919   1.404       .  A
C918        C923   1.451       .  S
C919        C920   1.412       .  A
C919        C926   1.446       .  S
C920        C921   1.407       .  A
C921        C922   1.406       .  A
C921        C924   1.452       .  S
C922        C925   1.447       .  S
C923        N930   1.157       .  T
C924        N929   1.157       .  T
C925        N927   1.156       .  T
C926        N928   1.156       .  T
C931        C932   1.409   1_565  A
C931        C936   1.415       .  A
C932        C933   1.404   1_456  A
C932        C937   1.452   1_455  S
C933        C934   1.416   1_645  A
C933        C940   1.453       .  S
C934        C935   1.413       .  A
C935        C936   1.408   1_554  A
C935        C938   1.452       .  S
C936        C939   1.453       .  S
C937        N944   1.157       .  T
C938        N943   1.157       .  T
C939        N941   1.158       .  T
C940        N942   1.157       .  T
C945        C946   1.419   1_565  A
C945        C950   1.421       .  A
C946        C947   1.425       .  A
C946        C951   1.449       .  S
C947        C948   1.421   1_645  A
C947        C954   1.450       .  S
C948        C949   1.422   1_455  A
C949        C950   1.413       .  A
C949        C952   1.455   1_655  S
C950        C953   1.454       .  S
C951        N958   1.157       .  T
C952        N957   1.158       .  T
C953        N955   1.157       .  T
C954        N956   1.157   1_655  T
C959        C960   1.401       .  A
C959        C964   1.409   1_565  A
C960        C961   1.402       .  A
C960        C965   1.454       .  S
C961        C962   1.423       .  A
C961        C968   1.453       .  S
C962        C963   1.412   1_565  A
C963        C964   1.407       .  A
C963        C966   1.452       .  S
C964        C967   1.449       .  S
C965        N972   1.157       .  T
C966        N971   1.157       .  T
C967        N969   1.157       .  T
C968        N970   1.157       .  T
C973        C974   1.410       .  A
C973        C978   1.412       .  A
C974        C975   1.412       .  A
C974        C979   1.451       .  S
C975        C976   1.415       .  A
C975        C982   1.451       .  S
C976        C977   1.414       .  A
C977        C978   1.412       .  A
C977        C980   1.451       .  S
C978        C981   1.451       .  S
C979        N986   1.157       .  T
C980        N985   1.157       .  T
C981        N983   1.157       .  T
C982        N984   1.157       .  T
C987        C988   1.426       .  A
C987        C992   1.417       .  A
C988        C989   1.417       .  A
C988        C993   1.453       .  S
C989        C990   1.414       .  A
C989        C996   1.452       .  S
C990        C991   1.420       .  A
C991        C992   1.421       .  A
C991        C994   1.450       .  S
C992        C995   1.450       .  S
C993       N1000   1.158       .  T
C994        N999   1.157       .  T
C995        N997   1.157       .  T
C996        N998   1.157       .  T
C1001      C1002   1.419       .  A
C1001      C1006   1.414       .  A
C1002      C1003   1.415       .  A
C1002      C1007   1.451       .  S
C1003      C1004   1.409       .  A
C1003      C1010   1.451       .  S
C1004      C1005   1.412       .  A
C1005      C1006   1.412       .  A
C1005      C1008   1.451       .  S
C1006      C1009   1.451       .  S
C1007      N1014   1.157       .  T
C1008      N1013   1.157       .  T
C1009      N1011   1.157       .  T
C1010      N1012   1.157       .  T
C1015      C1016   1.414       .  A
C1015      C1020   1.411       .  A
C1016      C1017   1.402       .  A
C1016      C1021   1.454       .  S
C1017      C1018   1.410       .  A
C1017      C1024   1.453       .  S
C1018      C1019   1.414       .  A
C1019      C1020   1.406       .  A
C1019      C1022   1.453       .  S
C1020      C1023   1.452       .  S
C1021      N1028   1.157       .  T
C1022      N1027   1.157       .  T
C1023      N1025   1.157       .  T
C1024      N1026   1.157       .  T
C1029      C1030   1.420       .  A
C1029      C1034   1.415       .  A
C1030      C1031   1.419       .  A
C1030      C1035   1.446       .  S
C1031      C1032   1.413       .  A
C1031      C1038   1.451       .  S
C1032      C1033   1.420       .  A
C1033      C1034   1.418       .  A
C1033      C1036   1.452       .  S
C1034      C1037   1.451       .  S
C1035      N1042   1.155       .  T
C1036      N1041   1.158       .  T
C1037      N1039   1.158       .  T
C1038      N1040   1.157       .  T
C1043      C1044   1.417       .  A
C1043      C1048   1.416       .  A
C1044      C1045   1.399       .  A
C1044      C1049   1.456       .  S
C1045      C1046   1.414       .  A
C1045      C1052   1.456       .  S
C1046      C1047   1.415       .  A
C1047      C1048   1.414       .  A
C1047      C1050   1.451       .  S
C1048      C1051   1.451       .  S
C1049      N1056   1.158       .  T
C1050      N1055   1.157       .  T
C1051      N1053   1.157       .  T
C1052      N1054   1.158       .  T
C1057      C1058   1.413       .  A
C1057      C1062   1.400       .  A
C1058      C1059   1.411       .  A
C1058      C1063   1.452       .  S
C1059      C1060   1.414       .  A
C1059      C1066   1.451       .  S
C1060      C1061   1.428       .  A
C1061      C1062   1.400       .  A
C1061      C1064   1.455       .  S
C1062      C1065   1.454       .  S
C1063      N1070   1.157       .  T
C1064      N1069   1.157       .  T
C1065      N1067   1.157       .  T
C1066      N1068   1.158       .  T
C1071      C1072   1.421       .  A
C1071      C1076   1.423       .  A
C1072      C1073   1.417       .  A
C1072      C1077   1.451       .  S
C1073      C1074   1.412       .  A
C1073      C1080   1.452       .  S
C1074      C1075   1.407       .  A
C1075      C1076   1.414       .  A
C1075      C1078   1.452       .  S
C1076      C1079   1.451       .  S
C1077      N1084   1.158       .  T
C1078      N1083   1.157       .  T
C1079      N1081   1.157       .  T
C1080      N1082   1.157       .  T
C1085      C1086   1.410       .  A
C1085      C1090   1.414       .  A
C1086      C1087   1.412       .  A
C1086      C1091   1.450       .  S
C1087      C1088   1.413       .  A
C1087      C1094   1.450       .  S
C1088      C1089   1.409       .  A
C1089      C1090   1.413       .  A
C1089      C1092   1.451       .  S
C1090      C1093   1.446       .  S
C1091      N1098   1.157   1_655  T
C1092      N1097   1.157       .  T
C1093      N1095   1.156       .  T
C1094      N1096   1.157       .  T
C1099      C1100   1.411       .  A
C1099      C1104   1.410   1_455  A
C1100      C1101   1.407       .  A
C1100      C1105   1.453       .  S
C1101      C1102   1.411   1_455  A
C1101      C1108   1.450       .  S
C1102      C1103   1.413       .  A
C1103      C1104   1.410       .  A
C1103      C1106   1.451       .  S
C1104      C1107   1.451       .  S
C1105      N1112   1.157       .  T
C1106      N1111   1.157       .  T
C1107      N1109   1.157       .  T
C1108      N1110   1.157       .  T
C1113      C1114   1.422       .  A
C1113      C1118   1.413       .  A
C1114      C1115   1.423       .  A
C1114      C1119   1.451       .  S
C1115      C1116   1.416       .  A
C1115      C1122   1.450       .  S
C1116      C1117   1.420       .  A
C1117      C1118   1.413       .  A
C1117      C1120   1.453       .  S
C1118      C1121   1.451       .  S
C1119      N1126   1.158   1_455  T
C1120      N1125   1.157       .  T
C1121      N1123   1.157       .  T
C1122      N1124   1.157       .  T
C1127      C1128   1.410       .  A
C1127      C1132   1.414       .  A
C1128      C1129   1.413       .  A
C1128      C1133   1.451       .  S
C1129      C1130   1.414       .  A
C1129      C1136   1.451       .  S
C1130      C1131   1.410       .  A
C1131      C1132   1.413       .  A
C1131      C1134   1.450       .  S
C1132      C1135   1.451       .  S
C1133      N1140   1.157       .  T
C1134      N1139   1.157   1_655  T
C1135      N1137   1.157       .  T
C1136      N1138   1.157       .  T
C1141      C1142   1.410       .  A
C1141      C1146   1.421       .  A
C1142      C1143   1.414       .  A
C1142      C1147   1.451       .  S
C1143      C1144   1.422       .  A
C1143      C1150   1.452       .  S
C1144      C1145   1.417       .  A
C1145      C1146   1.423       .  A
C1145      C1148   1.451       .  S
C1146      C1149   1.450       .  S
C1147      N1154   1.157       .  T
C1148      N1153   1.158       .  T
C1149      N1151   1.158       .  T
C1150      N1152   1.157       .  T
C1155      C1156   1.413       .  A
C1155      C1160   1.408       .  A
C1156      C1157   1.412       .  A
C1156      C1161   1.453       .  S
C1157      C1158   1.418       .  A
C1157      C1164   1.451       .  S
C1158      C1159   1.423       .  A
C1159      C1160   1.414       .  A
C1159      C1162   1.452       .  S
C1160      C1163   1.450       .  S
C1161      N1168   1.157       .  T
C1162      N1167   1.158   1_655  T
C1163      N1165   1.157   1_655  T
C1164      N1166   1.157       .  T
C1169      C1170   1.414       .  A
C1169      C1174   1.410       .  A
C1170      C1171   1.421       .  A
C1170      C1175   1.450       .  S
C1171      C1172   1.416       .  A
C1171      C1178   1.449       .  S
C1172      C1173   1.418       .  A
C1173      C1174   1.411       .  A
C1173      C1176   1.452       .  S
C1174      C1177   1.452       .  S
C1175      N1182   1.157   1_554  T
C1176      N1181   1.157       .  T
C1177      N1179   1.157       .  T
C1178      N1180   1.157   1_554  T
C1183      C1184   1.416       .  A
C1183      C1188   1.419       .  A
C1184      C1185   1.409       .  A
C1184      C1189   1.452       .  S
C1185      C1186   1.415       .  A
C1185      C1192   1.454       .  S
C1186      C1187   1.414       .  A
C1187      C1188   1.410       .  A
C1187      C1190   1.452       .  S
C1188      C1191   1.454       .  S
C1189      N1196   1.157       .  T
C1190      N1195   1.157       .  T
C1191      N1193   1.158       .  T
C1192      N1194   1.158       .  T
C1197      C1198   1.422       .  A
C1197      C1202   1.413       .  A
C1198      C1199   1.410       .  A
C1198      C1203   1.453       .  S
C1199      C1200   1.412       .  A
C1199      C1206   1.453       .  S
C1200      C1201   1.419       .  A
C1201      C1202   1.422       .  A
C1201      C1204   1.450       .  S
C1202      C1205   1.449   1_556  S
C1203      N1210   1.157       .  T
C1204      N1209   1.157       .  T
C1205      N1207   1.157       .  T
C1206      N1208   1.157       .  T
C1211      C1212   1.407       .  A
C1211      C1216   1.414       .  A
C1212      C1213   1.406       .  A
C1212      C1217   1.452       .  S
C1213      C1214   1.412       .  A
C1213      C1220   1.447       .  S
C1214      C1215   1.407       .  A
C1215      C1216   1.407       .  A
C1215      C1218   1.452       .  S
C1216      C1219   1.447       .  S
C1217      N1224   1.157       .  T
C1218      N1223   1.157       .  T
C1219      N1221   1.156       .  T
C1220      N1222   1.156   1_655  T
C1225      C1226   1.412       .  A
C1225      C1230   1.409       .  A
C1226      C1227   1.413       .  A
C1226      C1231   1.450       .  S
C1227      C1228   1.412       .  A
C1227      C1234   1.450       .  S
C1228      C1229   1.413       .  A
C1229      C1230   1.409       .  A
C1229      C1232   1.451       .  S
C1230      C1233   1.451       .  S
C1231      N1238   1.157       .  T
C1232      N1237   1.157       .  T
C1233      N1235   1.157       .  T
C1234      N1236   1.157       .  T
C1239      C1240   1.411       .  A
C1239      C1244   1.419       .  A
C1240      C1241   1.412   1_655  A
C1240      C1245   1.453       .  S
C1241      C1242   1.422       .  A
C1241      C1248   1.453       .  S
C1242      C1243   1.414   1_455  A
C1243      C1244   1.420       .  A
C1243      C1246   1.449   1_554  S
C1244      C1247   1.450       .  S
C1245      N1252   1.157       .  T
C1246      N1251   1.157       .  T
C1247      N1249   1.157       .  T
C1248      N1250   1.157       .  T
C1253      C1254   1.426       .  A
C1253      C1258   1.415       .  A
C1254      C1255   1.402       .  A
C1254      C1259   1.453       .  S
C1255      C1256   1.400       .  A
C1255      C1262   1.454       .  S
C1256      C1257   1.408       .  A
C1257      C1258   1.407       .  A
C1257      C1260   1.452       .  S
C1258      C1261   1.449       .  S
C1259      N1266   1.157       .  T
C1260      N1265   1.157       .  T
C1261      N1263   1.156       .  T
C1262      N1264   1.157       .  T
C1267      C1268   1.418       .  A
C1267      C1272   1.415       .  A
C1268      C1269   1.413       .  A
C1268      C1273   1.452       .  S
C1269      C1270   1.411       .  A
C1269      C1276   1.451       .  S
C1270      C1271   1.413       .  A
C1271      C1272   1.411       .  A
C1271      C1274   1.452       .  S
C1272      C1275   1.452       .  S
C1273      N1280   1.158       .  T
C1274      N1279   1.157       .  T
C1275      N1277   1.157       .  T
C1276      N1278   1.157       .  T
C1281      C1282   1.410       .  A
C1281      C1286   1.412       .  A
C1282      C1283   1.412       .  A
C1282      C1287   1.450       .  S
C1283      C1284   1.412       .  A
C1283      C1290   1.450       .  S
C1284      C1285   1.409       .  A
C1285      C1286   1.411       .  A
C1285      C1288   1.450       .  S
C1286      C1289   1.450       .  S
C1287      N1294   1.157       .  T
C1288      N1293   1.157       .  T
C1289      N1291   1.157       .  T
C1290      N1292   1.157       .  T
C1295      C1296   1.407       .  A
C1295      C1300   1.412   1_556  A
C1296      C1297   1.403   1_556  A
C1296      C1301   1.452       .  S
C1297      C1298   1.412       .  A
C1297      C1304   1.452       .  S
C1298      C1299   1.407       .  A
C1299      C1300   1.403       .  A
C1299      C1302   1.452       .  S
C1300      C1303   1.452       .  S
C1301      N1308   1.157       .  T
C1302      N1307   1.157       .  T
C1303      N1305   1.157       .  T
C1304      N1306   1.157       .  T
C1309      C1310   1.416       .  A
C1309      C1314   1.408       .  A
C1310      C1311   1.423       .  A
C1310      C1315   1.450       .  S
C1311      C1312   1.415       .  A
C1311      C1318   1.448       .  S
C1312      C1313   1.419       .  A
C1313      C1314   1.410       .  A
C1313      C1316   1.453       .  S
C1314      C1317   1.448       .  S
C1315      N1322   1.157       .  T
C1316      N1321   1.157       .  T
C1317      N1319   1.155       .  T
C1318      N1320   1.157       .  T
C1323      C1324   1.416       .  A
C1323      C1328   1.415       .  A
C1324      C1325   1.411       .  A
C1324      C1329   1.450       .  S
C1325      C1326   1.408       .  A
C1325      C1332   1.451       .  S
C1326      C1327   1.413       .  A
C1327      C1328   1.417       .  A
C1327      C1330   1.450       .  S
C1328      C1331   1.450       .  S
C1329      N1336   1.157       .  T
C1330      N1335   1.157       .  T
C1331      N1333   1.157       .  T
C1332      N1334   1.157       .  T
C1337      C1338   1.416   1_545  A
C1337      C1342   1.415       .  A
C1338      C1339   1.408       .  A
C1338      C1343   1.453       .  S
C1339      C1340   1.417       .  A
C1339      C1346   1.453       .  S
C1340      C1341   1.416   1_565  A
C1341      C1342   1.408       .  A
C1341      C1344   1.451       .  S
C1342      C1345   1.454       .  S
C1343      N1350   1.157       .  T
C1344      N1349   1.157       .  T
C1345      N1347   1.157       .  T
C1346      N1348   1.157       .  T
C1351      C1352   1.419   1_565  A
C1351      C1356   1.412       .  A
C1352      C1353   1.418       .  A
C1352      C1357   1.450       .  S
C1353      C1354   1.416   1_545  A
C1353      C1360   1.451       .  S
C1354      C1355   1.422       .  A
C1355      C1356   1.415       .  A
C1355      C1358   1.452       .  S
C1356      C1359   1.451   1_554  S
C1357      N1364   1.157       .  T
C1358      N1363   1.158       .  T
C1359      N1361   1.157       .  T
C1360      N1362   1.157       .  T
C1365      C1366   1.422       .  A
C1365      C1370   1.419       .  A
C1366      C1367   1.411       .  A
C1366      C1371   1.452       .  S
C1367      C1368   1.407       .  A
C1367      C1374   1.451       .  S
C1368      C1369   1.411       .  A
C1369      C1370   1.412       .  A
C1369      C1372   1.452       .  S
C1370      C1373   1.452       .  S
C1371      N1378   1.158       .  T
C1372      N1377   1.157       .  T
C1373      N1375   1.158       .  T
C1374      N1376   1.157       .  T
C1379      C1380   1.415       .  A
C1379      C1384   1.410       .  A
C1380      C1381   1.416       .  A
C1380      C1385   1.449       .  S
C1381      C1382   1.412       .  A
C1381      C1388   1.451       .  S
C1382      C1383   1.414       .  A
C1383      C1384   1.413       .  A
C1383      C1386   1.450       .  S
C1384      C1387   1.451       .  S
C1385      N1392   1.157       .  T
C1386      N1391   1.157       .  T
C1387      N1389   1.157       .  T
C1388      N1390   1.157       .  T
C1393      C1394   1.422       .  A
C1393      C1398   1.417       .  A
C1394      C1395   1.413       .  A
C1394      C1399   1.454       .  S
C1395      C1396   1.413       .  A
C1395      C1402   1.451       .  S
C1396      C1397   1.417       .  A
C1397      C1398   1.424       .  A
C1397      C1400   1.450       .  S
C1398      C1401   1.448       .  S
C1399      N1406   1.158       .  T
C1400      N1405   1.157       .  T
C1401      N1403   1.157       .  T
C1402      N1404   1.157       .  T
C1407      C1408   1.415       .  A
C1407      C1412   1.425       .  A
C1408      C1409   1.408       .  A
C1408      C1413   1.450       .  S
C1409      C1410   1.409       .  A
C1409      C1416   1.452       .  S
C1410      C1411   1.402       .  A
C1411      C1412   1.406       .  A
C1411      C1414   1.453       .  S
C1412      C1415   1.452       .  S
C1413      N1420   1.157       .  T
C1414      N1419   1.157       .  T
C1415      N1417   1.157       .  T
C1416      N1418   1.157       .  T
C1421      C1422   1.413       .  A
C1421      C1426   1.410       .  A
C1422      C1423   1.413       .  A
C1422      C1427   1.450       .  S
C1423      C1424   1.411       .  A
C1423      C1430   1.450       .  S
C1424      C1425   1.412       .  A
C1425      C1426   1.413       .  A
C1425      C1428   1.450       .  S
C1426      C1429   1.450       .  S
C1427      N1434   1.157       .  T
C1428      N1433   1.157       .  T
C1429      N1431   1.157       .  T
C1430      N1432   1.157       .  T
C1435      C1436   1.412   1_545  A
C1435      C1440   1.421       .  A
C1436      C1437   1.417       .  A
C1436      C1441   1.451       .  S
C1437      C1438   1.420   1_565  A
C1437      C1444   1.446       .  S
C1438      C1439   1.417       .  A
C1439      C1440   1.418       .  A
C1439      C1442   1.452       .  S
C1440      C1443   1.452       .  S
C1441      N1448   1.157       .  T
C1442      N1447   1.158       .  T
C1443      N1445   1.158       .  T
C1444      N1446   1.156       .  T
C1449      C1450   1.401   1_545  A
C1449      C1454   1.413       .  A
C1450      C1451   1.403       .  A
C1450      C1455   1.454       .  S
C1451      C1452   1.429   1_565  A
C1451      C1458   1.454       .  S
C1452      C1453   1.417       .  A
C1453      C1454   1.414       .  A
C1453      C1456   1.451       .  S
C1454      C1457   1.451       .  S
C1455      N1462   1.157       .  T
C1456      N1461   1.158       .  T
C1457      N1459   1.157       .  T
C1458      N1460   1.158       .  T
C1463      C1464   1.420       .  A
C1463      C1468   1.418       .  A
C1464      C1465   1.418       .  A
C1464      C1469   1.450       .  S
C1465      C1466   1.410       .  A
C1465      C1472   1.450       .  S
C1466      C1467   1.412       .  A
C1467      C1468   1.416       .  A
C1467      C1470   1.451       .  S
C1468      C1471   1.451       .  S
C1469      N1476   1.157       .  T
C1470      N1475   1.157       .  T
C1471      N1473   1.157       .  T
C1472      N1474   1.157       .  T
C1477      C1478   1.414   1_565  A
C1477      C1482   1.412       .  A
C1478      C1479   1.410       .  A
C1478      C1483   1.452       .  S
C1479      C1480   1.412       .  A
C1479      C1486   1.452       .  S
C1480      C1481   1.414   1_545  A
C1481      C1482   1.410       .  A
C1481      C1484   1.452       .  S
C1482      C1485   1.451       .  S
C1483      N1490   1.157       .  T
C1484      N1489   1.157       .  T
C1485      N1487   1.157       .  T
C1486      N1488   1.157       .  T
C1491      C1492   1.410   1_545  A
C1491      C1496   1.419       .  A
C1492      C1493   1.418   1_565  A
C1492      C1497   1.450       .  S
C1493      C1494   1.418       .  A
C1493      C1500   1.448       .  S
C1494      C1495   1.409       .  A
C1495      C1496   1.416       .  A
C1495      C1498   1.451       .  S
C1496      C1499   1.448       .  S
C1497      N1504   1.157       .  T
C1498      N1503   1.157       .  T
C1499      N1501   1.157       .  T
C1500      N1502   1.156       .  T
C1505      C1506   1.420       .  A
C1505      C1510   1.416   1_565  A
C1506      C1507   1.413       .  A
C1506      C1511   1.452       .  S
C1507      C1508   1.412       .  A
C1507      C1514   1.452       .  S
C1508      C1509   1.419   1_565  A
C1509      C1510   1.419       .  A
C1509      C1512   1.451       .  S
C1510      C1513   1.450       .  S
C1511      N1518   1.157       .  T
C1512      N1517   1.157       .  T
C1513      N1515   1.157       .  T
C1514      N1516   1.157       .  T
C1519      C1520   1.407       .  A
C1519      C1524   1.416       .  A
C1520      C1521   1.403       .  A
C1520      C1525   1.452       .  S
C1521      C1522   1.415       .  A
C1521      C1528   1.452       .  S
C1522      C1523   1.410       .  A
C1523      C1524   1.408       .  A
C1523      C1526   1.452       .  S
C1524      C1527   1.452       .  S
C1525      N1532   1.157       .  T
C1526      N1531   1.158       .  T
C1527      N1529   1.158       .  T
C1528      N1530   1.157       .  T
C1533      C1534   1.424       .  A
C1533      C1538   1.414       .  A
C1534      C1535   1.420       .  A
C1534      C1539   1.452       .  S
C1535      C1536   1.416       .  A
C1535      C1542   1.452       .  S
C1536      C1537   1.421       .  A
C1537      C1538   1.421       .  A
C1537      C1540   1.445       .  S
C1538      C1541   1.451       .  S
C1539      N1546   1.158       .  T
C1540      N1545   1.155       .  T
C1541      N1543   1.157       .  T
C1542      N1544   1.158       .  T
C1547      C1548   1.411       .  A
C1547      C1552   1.410       .  A
C1548      C1549   1.414       .  A
C1548      C1553   1.452       .  S
C1549      C1550   1.419       .  A
C1549      C1556   1.451       .  S
C1550      C1551   1.421       .  A
C1551      C1552   1.417       .  A
C1551      C1554   1.450       .  S
C1552      C1555   1.451       .  S
C1553      N1560   1.157       .  T
C1554      N1559   1.157       .  T
C1555      N1557   1.157       .  T
C1556      N1558   1.157       .  T
C1561      C1562   1.418   1_565  A
C1561      C1566   1.414       .  A
C1562      C1563   1.408       .  A
C1562      C1567   1.453       .  S
C1563      C1564   1.413       .  A
C1563      C1570   1.453       .  S
C1564      C1565   1.416   1_545  A
C1565      C1566   1.407       .  A
C1565      C1568   1.454       .  S
C1566      C1569   1.453       .  S
C1567      N1574   1.158       .  T
C1568      N1573   1.158       .  T
C1569      N1571   1.157       .  T
C1570      N1572   1.157       .  T
C1575      C1576   1.409       .  A
C1575      C1580   1.417       .  A
C1576      C1577   1.419       .  A
C1576      C1581   1.451       .  S
C1577      C1578   1.420       .  A
C1577      C1584   1.449       .  S
C1578      C1579   1.409       .  A
C1579      C1580   1.415       .  A
C1579      C1582   1.451       .  S
C1580      C1583   1.448       .  S
C1581      N1588   1.157   1_565  T
C1582      N1587   1.157       .  T
C1583      N1585   1.156       .  T
C1584      N1586   1.157       .  T
C1589      C1590   1.414   1_565  A
C1589      C1594   1.420       .  A
C1590      C1591   1.415       .  A
C1590      C1595   1.452   1_556  S
C1591      C1592   1.421       .  A
C1591      C1598   1.452       .  S
C1592      C1593   1.415   1_545  A
C1593      C1594   1.419       .  A
C1593      C1596   1.451       .  S
C1594      C1597   1.451       .  S
C1595      N1602   1.157       .  T
C1596      N1601   1.157       .  T
C1597      N1599   1.157       .  T
C1598      N1600   1.158       .  T
C1603      C1604   1.412       .  A
C1603      C1608   1.399   1_565  A
C1604      C1605   1.417       .  A
C1604      C1609   1.452       .  S
C1605      C1606   1.420       .  A
C1605      C1612   1.450       .  S
C1606      C1607   1.431   1_565  A
C1607      C1608   1.406       .  A
C1607      C1610   1.453       .  S
C1608      C1611   1.453       .  S
C1609      N1616   1.157       .  T
C1610      N1615   1.157       .  T
C1611      N1613   1.157       .  T
C1612      N1614   1.158       .  T
C1617      C1618   1.420       .  A
C1617      C1622   1.411       .  A
C1618      C1619   1.416       .  A
C1618      C1623   1.451       .  S
C1619      C1620   1.413       .  A
C1619      C1626   1.451   1_554  S
C1620      C1621   1.420       .  A
C1621      C1622   1.418       .  A
C1621      C1624   1.444       .  S
C1622      C1625   1.451       .  S
C1623      N1630   1.157       .  T
C1624      N1629   1.155       .  T
C1625      N1627   1.157       .  T
C1626      N1628   1.157       .  T
C1631      C1632   1.414       .  A
C1631      C1636   1.414       .  A
C1632      C1633   1.396       .  A
C1632      C1637   1.457       .  S
C1633      C1634   1.416       .  A
C1633      C1640   1.456       .  S
C1634      C1635   1.419       .  A
C1635      C1636   1.416       .  A
C1635      C1638   1.451       .  S
C1636      C1639   1.451       .  S
C1637      N1644   1.157       .  T
C1638      N1643   1.158       .  T
C1639      N1641   1.158       .  T
C1640      N1642   1.157       .  T
C1645      C1646   1.409       .  A
C1645      C1650   1.409       .  A
C1646      C1647   1.411       .  A
C1646      C1651   1.451       .  S
C1647      C1648   1.416       .  A
C1647      C1654   1.451       .  S
C1648      C1649   1.420       .  A
C1649      C1650   1.414       .  A
C1649      C1652   1.452       .  S
C1650      C1653   1.452       .  S
C1651      N1658   1.157       .  T
C1652      N1657   1.158       .  T
C1653      N1655   1.158       .  T
C1654      N1656   1.157       .  T
C1659      C1660   1.408       .  A
C1659      C1664   1.412       .  A
C1660      C1661   1.409       .  A
C1660      C1665   1.452       .  S
C1661      C1662   1.417       .  A
C1661      C1668   1.451       .  S
C1662      C1663   1.415       .  A
C1663      C1664   1.417       .  A
C1663      C1666   1.449       .  S
C1664      C1667   1.450       .  S
C1665      N1672   1.157       .  T
C1666      N1671   1.157       .  T
C1667      N1669   1.157       .  T
C1668      N1670   1.157       .  T
C1673      C1674   1.418       .  A
C1673      C1678   1.413       .  A
C1674      C1675   1.405   1_556  A
C1674      C1679   1.454       .  S
C1675      C1676   1.411       .  A
C1675      C1682   1.452       .  S
C1676      C1677   1.416       .  A
C1677      C1678   1.405   1_554  A
C1677      C1680   1.454       .  S
C1678      C1681   1.453       .  S
C1679      N1686   1.158       .  T
C1680      N1685   1.158       .  T
C1681      N1683   1.157       .  T
C1682      N1684   1.157       .  T
C1687      C1688   1.418       .  A
C1687      C1692   1.409       .  A
C1688      C1689   1.419       .  A
C1688      C1693   1.448       .  S
C1689      C1690   1.411       .  A
C1689      C1696   1.451   1_556  S
C1690      C1691   1.419       .  A
C1691      C1692   1.416       .  A
C1691      C1694   1.448   1_455  S
C1692      C1695   1.452       .  S
C1693      N1700   1.157   1_556  T
C1694      N1699   1.156       .  T
C1695      N1697   1.157       .  T
C1696      N1698   1.157       .  T
C1701      C1702   1.417       .  A
C1701      C1706   1.421       .  A
C1702      C1703   1.417       .  A
C1702      C1707   1.453       .  S
C1703      C1704   1.424       .  A
C1703      C1710   1.454       .  S
C1704      C1705   1.415       .  A
C1705      C1706   1.421       .  A
C1705      C1708   1.451       .  S
C1706      C1709   1.446       .  S
C1707      N1714   1.157       .  T
C1708      N1713   1.157       .  T
C1709      N1711   1.156       .  T
C1710      N1712   1.158       .  T
C1715      C1716   1.413       .  A
C1715      C1720   1.409       .  A
C1716      C1717   1.417       .  A
C1716      C1721   1.450       .  S
C1717      C1718   1.412       .  A
C1717      C1724   1.449       .  S
C1718      C1719   1.414       .  A
C1719      C1720   1.413       .  A
C1719      C1722   1.450       .  S
C1720      C1723   1.450       .  S
C1721      N1728   1.157       .  T
C1722      N1727   1.157       .  T
C1723      N1725   1.157       .  T
C1724      N1726   1.157       .  T
C1729      C1730   1.418       .  A
C1729      C1734   1.412       .  A
C1730      C1731   1.424       .  A
C1730      C1735   1.450       .  S
C1731      C1732   1.416       .  A
C1731      C1738   1.449       .  S
C1732      C1733   1.422       .  A
C1733      C1734   1.412       .  A
C1733      C1736   1.454       .  S
C1734      C1737   1.452       .  S
C1735      N1742   1.157       .  T
C1736      N1741   1.157   1_455  T
C1737      N1739   1.157       .  T
C1738      N1740   1.157       .  T
C1743      C1744   1.418       .  A
C1743      C1748   1.415       .  A
C1744      C1745   1.413       .  A
C1744      C1749   1.451       .  S
C1745      C1746   1.409       .  A
C1745      C1752   1.451       .  S
C1746      C1747   1.411       .  A
C1747      C1748   1.412       .  A
C1747      C1750   1.452       .  S
C1748      C1751   1.451       .  S
C1749      N1756   1.157       .  T
C1750      N1755   1.157       .  T
C1751      N1753   1.157       .  T
C1752      N1754   1.157       .  T
C1757      C1758   1.415       .  A
C1757      C1762   1.412       .  A
C1758      C1759   1.412       .  A
C1758      C1763   1.450       .  S
C1759      C1760   1.410       .  A
C1759      C1766   1.451       .  S
C1760      C1761   1.415       .  A
C1761      C1762   1.416       .  A
C1761      C1764   1.450       .  S
C1762      C1765   1.451       .  S
C1763      N1770   1.157       .  T
C1764      N1769   1.157       .  T
C1765      N1767   1.157       .  T
C1766      N1768   1.157       .  T
C1771      C1772   1.412       .  A
C1771      C1776   1.416       .  A
C1772      C1773   1.410   1_455  A
C1772      C1777   1.452   1_455  S
C1773      C1774   1.418   1_655  A
C1773      C1780   1.453       .  S
C1774      C1775   1.411       .  A
C1775      C1776   1.406       .  A
C1775      C1778   1.452       .  S
C1776      C1779   1.453       .  S
C1777      N1784   1.157       .  T
C1778      N1783   1.157       .  T
C1779      N1781   1.157       .  T
C1780      N1782   1.158       .  T
C1785      C1786   1.421       .  A
C1785      C1790   1.413   1_455  A
C1786      C1787   1.423   1_455  A
C1786      C1791   1.447       .  S
C1787      C1788   1.416       .  A
C1787      C1794   1.451       .  S
C1788      C1789   1.423       .  A
C1789      C1790   1.415       .  A
C1789      C1792   1.452       .  S
C1790      C1793   1.453       .  S
C1791      N1798   1.156       .  T
C1792      N1797   1.157       .  T
C1793      N1795   1.157       .  T
C1794      N1796   1.158       .  T
C1799      C1800   1.421       .  A
C1799      C1804   1.413       .  A
C1800      C1801   1.413       .  A
C1800      C1805   1.453       .  S
C1801      C1802   1.415       .  A
C1801      C1808   1.453       .  S
C1802      C1803   1.421       .  A
C1803      C1804   1.418       .  A
C1803      C1806   1.448       .  S
C1804      C1807   1.451       .  S
C1805      N1812   1.158       .  T
C1806      N1811   1.156       .  T
C1807      N1809   1.157       .  T
C1808      N1810   1.158       .  T
C1813      C1814   1.408       .  A
C1813      C1818   1.407       .  A
C1814      C1815   1.415       .  A
C1814      C1819   1.450       .  S
C1815      C1816   1.423       .  A
C1815      C1822   1.450       .  S
C1816      C1817   1.421       .  A
C1817      C1818   1.396       .  A
C1817      C1820   1.455       .  S
C1818      C1821   1.457       .  S
C1819      N1826   1.158       .  T
C1820      N1825   1.158       .  T
C1821      N1823   1.157       .  T
C1822      N1824   1.157       .  T
C1827      C1828   1.417       .  A
C1827      C1832   1.412       .  A
C1828      C1829   1.415       .  A
C1828      C1833   1.450       .  S
C1829      C1830   1.409       .  A
C1829      C1836   1.450       .  S
C1830      C1831   1.414       .  A
C1831      C1832   1.416       .  A
C1831      C1834   1.450       .  S
C1832      C1835   1.450       .  S
C1833      N1840   1.157       .  T
C1834      N1839   1.157       .  T
C1835      N1837   1.157       .  T
C1836      N1838   1.157       .  T
C1841      C1842   1.414       .  A
C1841      C1846   1.413       .  A
C1842      C1843   1.407       .  A
C1842      C1847   1.452       .  S
C1843      C1844   1.410       .  A
C1843      C1850   1.452       .  S
C1844      C1845   1.412   1_455  A
C1845      C1846   1.407   1_655  A
C1845      C1848   1.452       .  S
C1846      C1849   1.452   1_455  S
C1847      N1854   1.157       .  T
C1848      N1853   1.157       .  T
C1849      N1851   1.157       .  T
C1850      N1852   1.157       .  T
C1855      C1856   1.421       .  A
C1855      C1860   1.415       .  A
C1856      C1857   1.420       .  A
C1856      C1861   1.451   1_655  S
C1857      C1858   1.415       .  A
C1857      C1864   1.451       .  S
C1858      C1859   1.420       .  A
C1859      C1860   1.414       .  A
C1859      C1862   1.453       .  S
C1860      C1863   1.452       .  S
C1861      N1868   1.157       .  T
C1862      N1867   1.158       .  T
C1863      N1865   1.157       .  T
C1864      N1866   1.157       .  T
C1869      C1870   1.415       .  A
C1869      C1874   1.425       .  A
C1870      C1871   1.410       .  A
C1870      C1875   1.451       .  S
C1871      C1872   1.412       .  A
C1871      C1878   1.451       .  S
C1872      C1873   1.401       .  A
C1873      C1874   1.405       .  A
C1873      C1876   1.453       .  S
C1874      C1877   1.453       .  S
C1875      N1882   1.158       .  T
C1876      N1881   1.157       .  T
C1877      N1879   1.157       .  T
C1878      N1880   1.157       .  T
C1883      C1884   1.412       .  A
C1883      C1888   1.408       .  A
C1884      C1885   1.414       .  A
C1884      C1889   1.451       .  S
C1885      C1886   1.416       .  A
C1885      C1892   1.451       .  S
C1886      C1887   1.421       .  A
C1887      C1888   1.414       .  A
C1887      C1890   1.451       .  S
C1888      C1891   1.451       .  S
C1889      N1896   1.157       .  T
C1890      N1895   1.157       .  T
C1891      N1893   1.157   1_455  T
C1892      N1894   1.157       .  T
C1897      C1898   1.410       .  A
C1897      C1902   1.413       .  A
C1898      C1899   1.413       .  A
C1898      C1903   1.450       .  S
C1899      C1900   1.415       .  A
C1899      C1906   1.450       .  S
C1900      C1901   1.411       .  A
C1901      C1902   1.414       .  A
C1901      C1904   1.450       .  S
C1902      C1905   1.450       .  S
C1903      N1910   1.157       .  T
C1904      N1909   1.157       .  T
C1905      N1907   1.157       .  T
C1906      N1908   1.157       .  T
C1911      C1912   1.411       .  A
C1911      C1916   1.409       .  A
C1912      C1913   1.408       .  A
C1912      C1917   1.452       .  S
C1913      C1914   1.410       .  A
C1913      C1920   1.451       .  S
C1914      C1915   1.411       .  A
C1915      C1916   1.405       .  A
C1915      C1918   1.452       .  S
C1916      C1919   1.451       .  S
C1917      N1924   1.157       .  T
C1918      N1923   1.157       .  T
C1919      N1921   1.157       .  T
C1920      N1922   1.157       .  T
C1925      C1926   1.421       .  A
C1925      C1930   1.417       .  A
C1926      C1927   1.426       .  A
C1926      C1931   1.450       .  S
C1927      C1928   1.419       .  A
C1927      C1934   1.449   1_556  S
C1928      C1929   1.423       .  A
C1929      C1930   1.413       .  A
C1929      C1932   1.454       .  S
C1930      C1933   1.453       .  S
C1931      N1938   1.158       .  T
C1932      N1937   1.157       .  T
C1933      N1935   1.157       .  T
C1934      N1936   1.157       .  T
C1939      C1940   1.419       .  A
C1939      C1944   1.412       .  A
C1940      C1941   1.425       .  A
C1940      C1945   1.450       .  S
C1941      C1942   1.416       .  A
C1941      C1948   1.449       .  S
C1942      C1943   1.425       .  A
C1943      C1944   1.415       .  A
C1943      C1946   1.453       .  S
C1944      C1947   1.453       .  S
C1945      N1952   1.157       .  T
C1946      N1951   1.158       .  T
C1947      N1949   1.157       .  T
C1948      N1950   1.157       .  T
C1953      C1954   1.412       .  A
C1953      C1958   1.413       .  A
C1954      C1955   1.413       .  A
C1954      C1959   1.450       .  S
C1955      C1956   1.412       .  A
C1955      C1962   1.450       .  S
C1956      C1957   1.409       .  A
C1957      C1958   1.408       .  A
C1957      C1960   1.451       .  S
C1958      C1961   1.452       .  S
C1959      N1966   1.157       .  T
C1960      N1965   1.157       .  T
C1961      N1963   1.157       .  T
C1962      N1964   1.157       .  T
C1967      C1968   1.410       .  A
C1967      C1972   1.417       .  A
C1968      C1969   1.406       .  A
C1968      C1973   1.453       .  S
C1969      C1970   1.416   1_554  A
C1969      C1976   1.453   1_554  S
C1970      C1971   1.409       .  A
C1971      C1972   1.406   1_556  A
C1971      C1974   1.452       .  S
C1972      C1975   1.453       .  S
C1973      N1980   1.157       .  T
C1974      N1979   1.157       .  T
C1975      N1977   1.157       .  T
C1976      N1978   1.157       .  T
C1981      C1982   1.408       .  A
C1981      C1986   1.416       .  A
C1982      C1983   1.412       .  A
C1982      C1987   1.452       .  S
C1983      C1984   1.421       .  A
C1983      C1990   1.452       .  S
C1984      C1985   1.413       .  A
C1985      C1986   1.419       .  A
C1985      C1988   1.449   1_554  S
C1986      C1989   1.451       .  S
C1987      N1994   1.157       .  T
C1988      N1993   1.157       .  T
C1989      N1991   1.157       .  T
C1990      N1992   1.157       .  T
C1995      C1996   1.410       .  A
C1995      C2000   1.419       .  A
C1996      C1997   1.419       .  A
C1996      C2001   1.450       .  S
C1997      C1998   1.420       .  A
C1997      C2004   1.448       .  S
C1998      C1999   1.410       .  A
C1999      C2000   1.419       .  A
C1999      C2002   1.451       .  S
C2000      C2003   1.448       .  S
C2001      N2008   1.157       .  T
C2002      N2007   1.157       .  T
C2003      N2005   1.157       .  T
C2004      N2006   1.157       .  T
C2009      C2010   1.420       .  A
C2009      C2014   1.419       .  A
C2010      C2011   1.415       .  A
C2010      C2015   1.452       .  S
C2011      C2012   1.411       .  A
C2011      C2018   1.452       .  S
C2012      C2013   1.411       .  A
C2013      C2014   1.414       .  A
C2013      C2016   1.450       .  S
C2014      C2017   1.451       .  S
C2015      N2022   1.158       .  T
C2016      N2021   1.157       .  T
C2017      N2019   1.157       .  T
C2018      N2020   1.157       .  T
C2023      C2024   1.409       .  A
C2023      C2028   1.413       .  A
C2024      C2025   1.412       .  A
C2024      C2029   1.451       .  S
C2025      C2026   1.416       .  A
C2025      C2032   1.452       .  S
C2026      C2027   1.412       .  A
C2027      C2028   1.415       .  A
C2027      C2030   1.449       .  S
C2028      C2031   1.450       .  S
C2029      N2036   1.157       .  T
C2030      N2035   1.157       .  T
C2031      N2033   1.157       .  T
C2032      N2034   1.158       .  T
C2037      C2038   1.411       .  A
C2037      C2042   1.413       .  A
C2038      C2039   1.407       .  A
C2038      C2043   1.451       .  S
C2039      C2040   1.413       .  A
C2039      C2046   1.452       .  S
C2040      C2041   1.414       .  A
C2041      C2042   1.409       .  A
C2041      C2044   1.452       .  S
C2042      C2045   1.452       .  S
C2043      N2050   1.157       .  T
C2044      N2049   1.158       .  T
C2045      N2047   1.157       .  T
C2046      N2048   1.157       .  T
C2051      C2052   1.417       .  A
C2051      C2056   1.424       .  A
C2052      C2053   1.423       .  A
C2052      C2057   1.450       .  S
C2053      C2054   1.424       .  A
C2053      C2060   1.451       .  S
C2054      C2055   1.415       .  A
C2055      C2056   1.417       .  A
C2055      C2058   1.452       .  S
C2056      C2059   1.453       .  S
C2057      N2064   1.157       .  T
C2058      N2063   1.157       .  T
C2059      N2061   1.158       .  T
C2060      N2062   1.158       .  T
C2065      C2066   1.426       .  A
C2065      C2070   1.418       .  A
C2066      C2067   1.414       .  A
C2066      C2071   1.453       .  S
C2067      C2068   1.414       .  A
C2067      C2074   1.453       .  S
C2068      C2069   1.419       .  A
C2069      C2070   1.423       .  A
C2069      C2072   1.450       .  S
C2070      C2073   1.450       .  S
C2071      N2078   1.158       .  T
C2072      N2077   1.157       .  T
C2073      N2075   1.157       .  T
C2074      N2076   1.157       .  T
C2079      C2080   1.405       .  A
C2079      C2084   1.414       .  A
C2080      C2081   1.406       .  A
C2080      C2085   1.453       .  S
C2081      C2082   1.414       .  A
C2081      C2088   1.444       .  S
C2082      C2083   1.410       .  A
C2083      C2084   1.410       .  A
C2083      C2086   1.452       .  S
C2084      C2087   1.448       .  S
C2085      N2092   1.157       .  T
C2086      N2091   1.157       .  T
C2087      N2089   1.156       .  T
C2088      N2090   1.155       .  T
C2093      C2094   1.410       .  A
C2093      C2098   1.414       .  A
C2094      C2095   1.414       .  A
C2094      C2099   1.451       .  S
C2095      C2096   1.415       .  A
C2095      C2102   1.450       .  S
C2096      C2097   1.410       .  A
C2097      C2098   1.414       .  A
C2097      C2100   1.451       .  S
C2098      C2101   1.446       .  S
C2099      N2106   1.157       .  T
C2100      N2105   1.157       .  T
C2101      N2103   1.156       .  T
C2102      N2104   1.157       .  T
C2107      C2108   1.412       .  A
C2107      C2112   1.415       .  A
C2108      C2109   1.404       .  A
C2108      C2113   1.453       .  S
C2109      C2110   1.414       .  A
C2109      C2116   1.453       .  S
C2110      C2111   1.412       .  A
C2111      C2112   1.410       .  A
C2111      C2114   1.452       .  S
C2112      C2115   1.452       .  S
C2113      N2120   1.157       .  T
C2114      N2119   1.158       .  T
C2115      N2117   1.158       .  T
C2116      N2118   1.157       .  T
C2121      C2122   1.416       .  A
C2121      C2126   1.407       .  A
C2122      C2123   1.420       .  A
C2122      C2127   1.450       .  S
C2123      C2124   1.413       .  A
C2123      C2130   1.449       .  S
C2124      C2125   1.420       .  A
C2125      C2126   1.410       .  A
C2125      C2128   1.453       .  S
C2126      C2129   1.448       .  S
C2127      N2134   1.157       .  T
C2128      N2133   1.157       .  T
C2129      N2131   1.155       .  T
C2130      N2132   1.157       .  T
C2135      C2136   1.418       .  A
C2135      C2140   1.428       .  A
C2136      C2137   1.424       .  A
C2136      C2141   1.450       .  S
C2137      C2138   1.423       .  A
C2137      C2144   1.451       .  S
C2138      C2139   1.412       .  A
C2139      C2140   1.414       .  A
C2139      C2142   1.453       .  S
C2140      C2143   1.454       .  S
C2141      N2148   1.157       .  T
C2142      N2147   1.157       .  T
C2143      N2145   1.158       .  T
C2144      N2146   1.157       .  T
C2149      C2150   1.400       .  A
C2149      C2154   1.409       .  A
C2150      C2151   1.402       .  A
C2150      C2155   1.452       .  S
C2151      C2152   1.425       .  A
C2151      C2158   1.452       .  S
C2152      C2153   1.415       .  A
C2153      C2154   1.406       .  A
C2153      C2156   1.446       .  S
C2154      C2157   1.453       .  S
C2155      N2162   1.157       .  T
C2156      N2161   1.155       .  T
C2157      N2159   1.157       .  T
C2158      N2160   1.157       .  T
C2163      C2164   1.421       .  A
C2163      C2168   1.421       .  A
C2164      C2165   1.411       .  A
C2164      C2169   1.451       .  S
C2165      C2166   1.408       .  A
C2165      C2172   1.452       .  S
C2166      C2167   1.410       .  A
C2167      C2168   1.414       .  A
C2167      C2170   1.452       .  S
C2168      C2171   1.451       .  S
C2169      N2176   1.157       .  T
C2170      N2175   1.157       .  T
C2171      N2173   1.157       .  T
C2172      N2174   1.157       .  T
