geometry optimzed in LAMMPS
_audit_creation_date              2020-11-30 
_audit_creation_method            'lammps2cif' 
_symmetry_space_group_name_H-M    'P1' 
_symmetry_Int_Tables_number       1 
_symmetry_cell_setting            triclinic 
loop_ 
_symmetry_equiv_pos_as_xyz 
  x,y,z 
_cell_length_a                    27.00212069331102 
_cell_length_b                    43.46372312704744 
_cell_length_c                    27.44334520283956 
_cell_angle_alpha                 89.9999530477732 
_cell_angle_beta                  97.30451201640498 
_cell_angle_gamma                 89.99971739765151 
loop_ 
_atom_site_label 
_atom_site_type_symbol 
_atom_site_fract_x 
_atom_site_fract_y 
_atom_site_fract_z 
_atom_site_charge 
Fe1        Fe  0.13243773  0.31944063  0.36513097     1.65780
Fe2        Fe  0.05095697  0.30554730  0.26763966     1.73250
Fe3        Fe  0.12534037  0.24869614  0.31588849     1.54420
O4          O  0.19792185  0.25818396  0.35377705    -0.83050
O5          O  0.01291304  0.27297898  0.29695707    -0.81350
O6          O  0.20299120  0.30924271  0.35154432    -0.85550
O7          O  0.13683846  0.28310231  0.41888535    -0.80410
O8          O  0.14933680  0.25261024  0.24963261    -0.82180
O9          O  0.01667012  0.33471608  0.31491813    -0.84930
C10         C  0.11789150  0.25578800  0.41836380     0.95840
C11         C  0.22257639  0.28320739  0.36262501     1.03280
O12         O  0.10578678  0.29217246  0.31439511    -1.13910
O13         O  0.08883086  0.33977434  0.23990611    -0.76340
O14         O  0.13027376  0.35638997  0.31107634    -0.79830
O15         O  0.09853870  0.24291973  0.37960171    -0.80520
C16         C  0.11614997  0.35931479  0.26409985     0.94740
O17         O  0.06325802  0.32907735  0.38650545    -0.78470
O18         O  0.07921259  0.27599177  0.21528801    -0.83670
C19         C  0.01650360  0.24967949  0.27190640     0.97360
C20         C  0.11634772  0.25754233  0.21330263     1.03280
O21         O  0.05643788  0.23392581  0.27808080    -0.79310
C22         C  0.02128979  0.33415024  0.36179073     1.01580
Fe23       Fe  0.36487606  0.31945238  0.38484701     1.65780
Fe24       Fe  0.44635829  0.30556101  0.48234152     1.73250
Fe25       Fe  0.37198949  0.24870631  0.43408481     1.54420
O26         O  0.29940730  0.25818937  0.39619445    -0.83050
O27         O  0.48441973  0.27299621  0.45303524    -0.81350
O28         O  0.29432286  0.30924776  0.39842826    -0.85550
O29         O  0.36048681  0.28311576  0.33109002    -0.80410
O30         O  0.34799091  0.25261316  0.00034186    -0.82180
O31         O  0.48064186  0.33473059  0.43506273    -0.84930
C32         C  0.37944422  0.25580410  0.33161051     0.95840
C33         C  0.27474554  0.28321031  0.38734677     1.03280
O34         O  0.39153276  0.29218394  0.43558255    -1.13910
O35         O  0.40847348  0.33978556  0.01007189    -0.76340
O36         O  0.36703006  0.35640217  0.43890283    -0.79830
O37         O  0.39879756  0.24293633  0.37037283    -0.80520
C38         C  0.38115341  0.35932648  0.48587968     0.94740
O39         O  0.43405490  0.32909112  0.36347555    -0.78470
O40         O  0.41810818  0.27600137  0.03468844    -0.83670
C41         C  0.48082794  0.24969052  0.47807236     0.97370
C42         C  0.38097944  0.25754687  0.03667211     1.03280
O43         O  0.44089209  0.23393891  0.47189302    -0.79310
C44         C  0.47602466  0.33415815  0.38819041     1.01580
Fe45       Fe  0.36488778  0.17620272  0.13483972     1.65780
Fe46       Fe  0.44635055  0.19008711  0.23234437     1.73250
Fe47       Fe  0.37200951  0.24694991  0.18407899     1.54420
O48         O  0.39884394  0.25270911  0.12037739    -0.83050
O49         O  0.41808058  0.21964739  0.28468721    -0.81350
O50         O  0.36050699  0.21254058  0.08109020    -0.85550
O51         O  0.29433964  0.18641470  0.14842498    -0.80410
O52         O  0.44090837  0.26170845  0.22191184    -0.82180
O53         O  0.40845406  0.15586504  0.26006039    -0.84930
C54         C  0.27476145  0.21245212  0.13734402     0.95840
C55         C  0.37947586  0.23984846  0.08161450     1.03280
O56         O  0.39153872  0.20346895  0.18557995    -1.13910
O57         O  0.48064909  0.16091975  0.18506542    -0.76340
O58         O  0.43407076  0.16655747  0.11347211    -0.79830
O59         O  0.29942760  0.23747323  0.14617628    -0.80520
C60         C  0.47603820  0.16148724  0.13819164     0.94740
O61         O  0.36702581  0.13924875  0.18888544    -0.78470
O62         O  0.48442304  0.22264849  0.20304918    -0.83670
C63         C  0.38095761  0.23810911  0.28666387     0.97360
C64         C  0.48083516  0.24594831  0.22809860     1.03280
O65         O  0.34798473  0.24305285  0.25032461    -0.79310
C66         C  0.38113852  0.13632477  0.23586363     1.01580
Fe67       Fe  0.13246147  0.17619812  0.11514817     1.65780
Fe68       Fe  0.05099856  0.19007435  0.01763607     1.73250
Fe69       Fe  0.12533600  0.24694102  0.06589278     1.54420
O70         O  0.09850107  0.25270745  0.12959402    -0.83050
O71         O  0.07926472  0.21962968  0.46528851    -0.81350
O72         O  0.13683274  0.21253897  0.16888900    -0.85550
O73         O  0.20301072  0.18641085  0.10156582    -0.80410
O74         O  0.05643877  0.26169708  0.02805546    -0.82180
O75         O  0.08890381  0.15585177  0.98993451    -0.84930
C76         C  0.22258584  0.21244991  0.11263969     0.95840
C77         C  0.11786096  0.23984620  0.16836008     1.03280
O78         O  0.10580653  0.20346078  0.06440251    -1.13910
O79         O  0.01670041  0.16091185  0.06492167    -0.76340
O80         O  0.06327876  0.16655277  0.13651440    -0.79830
O81         O  0.19791717  0.23746927  0.10379951    -0.80520
C82         C  0.02131083  0.16148380  0.11179531     0.94740
O83         O  0.13033162  0.13924030  0.06111248    -0.78470
O84         O  0.01291172  0.22263857  0.54690795    -0.83670
C85         C  0.11638619  0.23809151  0.46330967     0.97370
C86         C  0.01650700  0.24594193  0.02186688     1.03280
O87         O  0.14936080  0.24303591  0.49964745    -0.79310
C88         C  0.11622051  0.13631385  0.01413501     1.01580
Fe89       Fe  0.38244696  0.42620892  0.11512850     1.65780
Fe90       Fe  0.30096523  0.44010673  0.01764456     1.73250
Fe91       Fe  0.37530766  0.49696608  0.06592632     1.54420
O92         O  0.34846847  0.50270321  0.12962815    -0.83050
O93         O  0.32924438  0.46967006  0.46531426    -0.81350
O94         O  0.38682703  0.46253420  0.16889458    -0.85550
O95         O  0.45299631  0.43643092  0.10154595    -0.80410
O96         O  0.30640702  0.01172984  0.02809482    -0.82180
O97         O  0.33884357  0.40588171  0.98990306    -0.84930
C98         C  0.47256973  0.46246791  0.11264388     0.95840
C99         C  0.36784576  0.48983803  0.16838345     1.03280
O100        O  0.35578748  0.45348218  0.06440277    -1.13910
O101        O  0.26666417  0.41093825  0.06491873    -0.76340
O102        O  0.31326740  0.41655568  0.13650254    -0.79830
O103        O  0.44789560  0.48748823  0.10382598    -0.80520
C104        C  0.27129110  0.41149507  0.11179317     0.94740
O105        O  0.38030417  0.38926706  0.06106391    -0.78470
O106        O  0.26290979  0.47266734  0.54696347    -0.83670
C107        C  0.36636348  0.48813489  0.46333965     0.97360
C108        C  0.26648872  0.99596246  0.02190250     1.03280
O109        O  0.39933152  0.49308625  0.49968022    -0.79310
C110        C  0.36617332  0.38634288  0.01408900     1.01580
Fe111      Fe  0.11487040  0.42620411  0.13486650     1.65780
Fe112      Fe  0.19634990  0.44009292  0.23235973     1.73250
Fe113      Fe  0.12200967  0.49695648  0.18408624     1.54420
O114        O  0.14885050  0.50270185  0.12038547    -0.83050
O115        O  0.16807244  0.46965077  0.28469459    -0.81350
O116        O  0.11050040  0.46253282  0.08111006    -0.85550
O117        O  0.04431886  0.43642669  0.14844379    -0.80410
O118        O  0.19090739  0.01171744  0.22192345    -0.82180
O119        O  0.15846274  0.40586710  0.26008485    -0.84930
C120        C  0.02474776  0.46246551  0.13735381     0.95840
C121        C  0.12948290  0.48983620  0.08162661     1.03280
O122        O  0.14153191  0.45347335  0.18559859    -1.13910
O123        O  0.23065345  0.41093004  0.18507944    -0.76340
O124        O  0.18405072  0.41655084  0.11349581    -0.79830
O125        O  0.04942344  0.48748396  0.14618103    -0.80520
C126        C  0.22602746  0.41149152  0.13820513     0.94740
O127        O  0.11700388  0.38925805  0.18892024    -0.78470
O128        O  0.23441946  0.47265669  0.20306577    -0.83670
C129        C  0.13095404  0.48811561  0.28667108     0.97370
C130        C  0.23083162  0.99595547  0.22811768     1.03280
O131        O  0.09798455  0.49306774  0.25033157    -0.79310
C132        C  0.13113181  0.38633122  0.23589461     1.01580
Fe133      Fe  0.11489199  0.06944026  0.38488188     1.65780
Fe134      Fe  0.19639327  0.05553276  0.48235214     1.73250
Fe135      Fe  0.12200510  0.99868693  0.43409042     1.54420
O136        O  0.04941695  0.00817661  0.39620692    -0.83050
O137        O  0.23442007  0.02296613  0.45300881    -0.81350
O138        O  0.04433697  0.05923428  0.39846609    -0.85550
O139        O  0.11048936  0.03311452  0.33111171    -0.80410
O140        O  0.09801271  0.00258519  0.00034855    -0.82180
O141        O  0.23067869  0.08470491  0.43507935    -0.84930
C142        C  0.12944620  0.00580361  0.33162135     0.95840
C143        C  0.02475553  0.03319942  0.38737078     1.03280
O144        O  0.14155156  0.04216523  0.43560378    -1.13910
O145        O  0.15853633  0.08975994  0.01011160    -0.76340
O146        O  0.11706278  0.10637592  0.43895539    -0.79830
O147        O  0.14880797  0.49293106  0.37037604    -0.80520
C148        C  0.13120275  0.10929865  0.48592901     0.94740
O149        O  0.18406809  0.07908424  0.36350094    -0.78470
O150        O  0.16813207  0.02597400  0.03469352    -0.83670
C151        C  0.23083808  0.49967135  0.47807112     0.97370
C152        C  0.13099892  0.00752331  0.03667882     1.03280
O153        O  0.19091103  0.48391138  0.47189335    -0.79310
C154        C  0.22604412  0.08414902  0.38820633     1.01580
Fe155      Fe  0.38245450  0.06945281  0.36512324     1.65780
Fe156      Fe  0.30095385  0.05554693  0.26764884     1.73250
Fe157      Fe  0.37532764  0.99869755  0.31592158     1.54420
O158        O  0.44791577  0.00818233  0.35380782    -0.83050
O159        O  0.26290963  0.02298449  0.29698175    -0.81350
O160        O  0.45301012  0.05923964  0.35154690    -0.85550
O161        O  0.38684536  0.03312947  0.41889694    -0.80410
O162        O  0.39932354  0.00258705  0.24966251    -0.82180
O163        O  0.26666937  0.08472023  0.31492018    -0.84930
C164        C  0.36787853  0.00582139  0.41838864     0.95840
C165        C  0.47258395  0.03320250  0.36264354     1.03280
O166        O  0.35579099  0.04217732  0.31440182    -1.13910
O167        O  0.33882200  0.08977126  0.23989239    -0.76340
O168        O  0.38029448  0.10638826  0.31104774    -0.79830
O169        O  0.34851650  0.49294943  0.37963392    -0.80520
C170        C  0.36615634  0.10931015  0.26407351     0.94740
O171        O  0.31327832  0.07909904  0.38649896    -0.78470
O172        O  0.32921142  0.02598324  0.21531409    -0.83670
C173        C  0.26649346  0.49968295  0.27193454     0.97370
C174        C  0.36633849  0.00752712  0.21333131     1.03280
O175        O  0.30642259  0.48392511  0.27811774    -0.79310
C176        C  0.27130073  0.08415746  0.36179289     1.01450
Fe177      Fe  0.13243774  0.31944061  0.86513097     1.65780
Fe178      Fe  0.05095698  0.30554727  0.76763966     1.73250
Fe179      Fe  0.12534038  0.24869611  0.81588849     1.54420
O180        O  0.19792185  0.25818393  0.85377705    -0.83050
O181        O  0.01291305  0.27297896  0.79695708    -0.81350
O182        O  0.20299120  0.30924268  0.85154431    -0.85550
O183        O  0.13683847  0.28310229  0.91888535    -0.80410
O184        O  0.14933681  0.25261020  0.74963261    -0.82180
O185        O  0.01667013  0.33471606  0.81491813    -0.84930
C186        C  0.11789151  0.25578798  0.91836380     0.95840
C187        C  0.22257640  0.28320736  0.86262501     1.03280
O188        O  0.10578679  0.29217243  0.81439511    -1.13910
O189        O  0.08883086  0.33977432  0.73990610    -0.76340
O190        O  0.13027377  0.35638994  0.81107633    -0.79830
O191        O  0.09853871  0.24291971  0.87960171    -0.80520
C192        C  0.11614997  0.35931477  0.76409984     0.94740
O193        O  0.06325803  0.32907732  0.88650545    -0.78470
O194        O  0.07921260  0.27599174  0.71528801    -0.83670
C195        C  0.01650360  0.24967947  0.77190640     0.97360
C196        C  0.11634773  0.25754230  0.71330263     1.03280
O197        O  0.05643788  0.23392578  0.77808080    -0.79310
C198        C  0.02128980  0.33415022  0.86179073     1.01580
Fe199      Fe  0.36487606  0.31945236  0.88484701     1.65780
Fe200      Fe  0.44635830  0.30556100  0.98234151     1.73250
Fe201      Fe  0.37198950  0.24870628  0.93408480     1.54420
O202        O  0.29940731  0.25818935  0.89619444    -0.83050
O203        O  0.48441973  0.27299620  0.95303521    -0.81350
O204        O  0.29432287  0.30924774  0.89842826    -0.85550
O205        O  0.36048681  0.28311574  0.83109002    -0.80410
O206        O  0.34799089  0.25261318  0.50034186    -0.82180
O207        O  0.48064187  0.33473057  0.93506272    -0.84930
C208        C  0.37944423  0.25580408  0.83161050     0.95840
C209        C  0.27474555  0.28321028  0.88734677     1.03280
O210        O  0.39153277  0.29218392  0.93558255    -1.13910
O211        O  0.40847346  0.33978557  0.51007189    -0.76340
O212        O  0.36703006  0.35640216  0.93890283    -0.79830
O213        O  0.39879757  0.24293631  0.87037282    -0.80520
C214        C  0.38115342  0.35932647  0.98587967     0.94740
O215        O  0.43405490  0.32909110  0.86347554    -0.78470
O216        O  0.41810817  0.27600138  0.53468845    -0.83670
C217        C  0.48082795  0.24969051  0.97807236     0.97370
C218        C  0.38097943  0.25754688  0.53667212     1.03280
O219        O  0.44089211  0.23393889  0.97189302    -0.79310
C220        C  0.47602466  0.33415813  0.88819039     1.01580
Fe221      Fe  0.36488778  0.17620271  0.63483969     1.65780
Fe222      Fe  0.44635055  0.19008709  0.73234435     1.73250
Fe223      Fe  0.37200951  0.24694989  0.68407899     1.54420
O224        O  0.39884394  0.25270911  0.62037739    -0.83050
O225        O  0.41808059  0.21964737  0.78468719    -0.81350
O226        O  0.36050699  0.21254058  0.58109019    -0.85550
O227        O  0.29433964  0.18641469  0.64842495    -0.80410
O228        O  0.44090838  0.26170843  0.72191184    -0.82180
O229        O  0.40845406  0.15586503  0.76006035    -0.84930
C230        C  0.27476145  0.21245211  0.63734401     0.95840
C231        C  0.37947586  0.23984847  0.58161449     1.03280
O232        O  0.39153873  0.20346893  0.68557993    -1.13910
O233        O  0.48064910  0.16091973  0.68506539    -0.76340
O234        O  0.43407076  0.16655746  0.61347208    -0.79830
O235        O  0.29942760  0.23747322  0.64617628    -0.80520
C236        C  0.47603821  0.16148723  0.63819161     0.94740
O237        O  0.36702581  0.13924874  0.68888540    -0.78470
O238        O  0.48442305  0.22264847  0.70304916    -0.83670
C239        C  0.38095762  0.23810909  0.78666386     0.97360
C240        C  0.48083517  0.24594829  0.72809859     1.03280
O241        O  0.34798474  0.24305283  0.75032460    -0.79310
C242        C  0.38113851  0.13632476  0.73586359     1.01580
Fe243      Fe  0.13246148  0.17619811  0.61514815     1.65780
Fe244      Fe  0.05099856  0.19007435  0.51763605     1.73250
Fe245      Fe  0.12533600  0.24694101  0.56589277     1.54420
O246        O  0.09850107  0.25270743  0.62959402    -0.83050
O247        O  0.07926472  0.21962967  0.96528853    -0.81350
O248        O  0.13683275  0.21253895  0.66888899    -0.85550
O249        O  0.20301073  0.18641084  0.60156578    -0.80410
O250        O  0.05643876  0.26169708  0.52805547    -0.82180
O251        O  0.08890381  0.15585177  0.48993448    -0.84930
C252        C  0.22258585  0.21244990  0.61263967     0.95840
C253        C  0.11786097  0.23984618  0.66836007     1.03280
O254        O  0.10580653  0.20346078  0.56440249    -1.13910
O255        O  0.01670041  0.16091184  0.56492164    -0.76340
O256        O  0.06327877  0.16655276  0.63651438    -0.79830
O257        O  0.19791718  0.23746926  0.60379950    -0.80520
C258        C  0.02131084  0.16148379  0.61179529     0.94740
O259        O  0.13033162  0.13924030  0.56111244    -0.78470
O260        O  0.01291172  0.22263857  0.04690796    -0.83670
C261        C  0.11638619  0.23809150  0.96330967     0.97370
C262        C  0.01650700  0.24594193  0.52186688     1.03280
O263        O  0.14936080  0.24303589  0.99964746    -0.79310
C264        C  0.11622051  0.13631385  0.51413498     1.01580
Fe265      Fe  0.38244694  0.42620892  0.61512850     1.65780
Fe266      Fe  0.30096521  0.44010673  0.51764456     1.73250
Fe267      Fe  0.37530764  0.49696608  0.56592632     1.54420
O268        O  0.34846844  0.50270321  0.62962816    -0.83050
O269        O  0.32924440  0.46967005  0.96531426    -0.81350
O270        O  0.38682702  0.46253420  0.66889459    -0.85550
O271        O  0.45299628  0.43643092  0.60154595    -0.80410
O272        O  0.30640702  0.01172982  0.52809482    -0.82180
O273        O  0.33884354  0.40588172  0.48990306    -0.84930
C274        C  0.47256971  0.46246791  0.61264387     0.95840
C275        C  0.36784574  0.48983803  0.66838346     1.03280
O276        O  0.35578745  0.45348219  0.56440277    -1.13910
O277        O  0.26666415  0.41093825  0.56491873    -0.76340
O278        O  0.31326738  0.41655568  0.63650254    -0.79830
O279        O  0.44789558  0.48748823  0.60382598    -0.80520
C280        C  0.27129108  0.41149507  0.61179318     0.94740
O281        O  0.38030414  0.38926706  0.56106392    -0.78470
O282        O  0.26290981  0.47266734  0.04696345    -0.83670
C283        C  0.36636350  0.48813488  0.96333964     0.97360
C284        C  0.26648871  0.99596244  0.52190250     1.03280
O285        O  0.39933155  0.49308624  0.99968021    -0.79310
C286        C  0.36617330  0.38634289  0.51408900     1.01580
Fe287      Fe  0.11487039  0.42620410  0.63486651     1.65780
Fe288      Fe  0.19634989  0.44009290  0.73235974     1.73250
Fe289      Fe  0.12200966  0.49695647  0.68408624     1.54420
O290        O  0.14885049  0.50270184  0.62038547    -0.83050
O291        O  0.16807242  0.46965076  0.78469459    -0.81350
O292        O  0.11050038  0.46253281  0.58111006    -0.85550
O293        O  0.04431884  0.43642668  0.64844380    -0.80410
O294        O  0.19090740  0.01171744  0.72192344    -0.82180
O295        O  0.15846271  0.40586708  0.76008485    -0.84930
C296        C  0.02474775  0.46246549  0.63735382     0.95840
C297        C  0.12948289  0.48983618  0.58162661     1.03280
O298        O  0.14153189  0.45347334  0.68559860    -1.13910
O299        O  0.23065343  0.41093002  0.68507944    -0.76340
O300        O  0.18405071  0.41655083  0.61349581    -0.79830
O301        O  0.04942343  0.48748394  0.64618103    -0.80520
C302        C  0.22602744  0.41149151  0.63820514     0.94740
O303        O  0.11700386  0.38925803  0.68892024    -0.78470
O304        O  0.23441945  0.47265667  0.70306579    -0.83670
C305        C  0.13095403  0.48811560  0.78667109     0.97370
C306        C  0.23083162  0.99595547  0.72811768     1.03280
O307        O  0.09798454  0.49306773  0.75033158    -0.79310
C308        C  0.13113180  0.38633120  0.73589461     1.01580
Fe309      Fe  0.11489199  0.06944026  0.88488190     1.65780
Fe310      Fe  0.19639329  0.05553277  0.98235215     1.73250
Fe311      Fe  0.12200511  0.99868694  0.93409042     1.54420
O312        O  0.04941697  0.00817662  0.89620692    -0.83050
O313        O  0.23442008  0.02296614  0.95300881    -0.81350
O314        O  0.04433697  0.05923428  0.89846612    -0.85550
O315        O  0.11048937  0.03311454  0.83111172    -0.80410
O316        O  0.09801270  0.00258519  0.50034855    -0.82180
O317        O  0.23067870  0.08470492  0.93507936    -0.84930
C318        C  0.12944621  0.00580363  0.83162135     0.95840
C319        C  0.02475554  0.03319942  0.88737079     1.03280
O320        O  0.14155157  0.04216524  0.93560380    -1.13910
O321        O  0.15853631  0.08975994  0.51011158    -0.76340
O322        O  0.11706278  0.10637593  0.93895542    -0.79830
O323        O  0.14880798  0.49293107  0.87037605    -0.80520
C324        C  0.13120276  0.10929865  0.98592904     0.94740
O325        O  0.18406808  0.07908426  0.86350095    -0.78470
O326        O  0.16813206  0.02597400  0.53469351    -0.83670
C327        C  0.23083810  0.49967136  0.97807112     0.97370
C328        C  0.13099891  0.00752332  0.53667882     1.03280
O329        O  0.19091104  0.48391140  0.97189335    -0.79310
C330        C  0.22604412  0.08414903  0.88820634     1.01580
Fe331      Fe  0.38245450  0.06945282  0.86512323     1.65780
Fe332      Fe  0.30095384  0.05554693  0.76764884     1.73250
Fe333      Fe  0.37532764  0.99869756  0.81592157     1.54420
O334        O  0.44791578  0.00818235  0.85380782    -0.83050
O335        O  0.26290963  0.02298449  0.79698175    -0.81350
O336        O  0.45301012  0.05923966  0.85154688    -0.85550
O337        O  0.38684537  0.03312948  0.91889693    -0.80410
O338        O  0.39932353  0.00258706  0.74966250    -0.82180
O339        O  0.26666936  0.08472023  0.81492017    -0.84930
C340        C  0.36787854  0.00582141  0.91838864     0.95840
C341        C  0.47258395  0.03320252  0.86264352     1.03280
O342        O  0.35579098  0.04217733  0.81440181    -1.13910
O343        O  0.33882197  0.08977126  0.73989237    -0.76340
O344        O  0.38029447  0.10638827  0.81104772    -0.79830
O345        O  0.34851650  0.49294942  0.87963392    -0.80520
C346        C  0.36615632  0.10931015  0.76407348     0.94740
O347        O  0.31327832  0.07909906  0.88649895    -0.78470
O348        O  0.32921141  0.02598324  0.71531408    -0.83670
C349        C  0.26649346  0.49968295  0.77193454     0.97370
C350        C  0.36633848  0.00752712  0.71333131     1.03280
O351        O  0.30642259  0.48392511  0.77811775    -0.79310
C352        C  0.27130072  0.08415747  0.86179289     1.01450
Fe353      Fe  0.13243774  0.81944063  0.36513098     1.65780
Fe354      Fe  0.05095698  0.80554729  0.26763966     1.73250
Fe355      Fe  0.12534038  0.74869613  0.31588849     1.54420
O356        O  0.19792186  0.75818395  0.35377705    -0.83050
O357        O  0.01291305  0.77297898  0.29695707    -0.81350
O358        O  0.20299121  0.80924270  0.35154433    -0.85550
O359        O  0.13683847  0.78310231  0.41888535    -0.80410
O360        O  0.14933681  0.75261023  0.24963260    -0.82180
O361        O  0.01667013  0.83471608  0.31491813    -0.84930
C362        C  0.11789151  0.75578799  0.41836380     0.95840
C363        C  0.22257640  0.78320738  0.36262502     1.03280
O364        O  0.10578679  0.79217245  0.31439511    -1.13910
O365        O  0.08883087  0.83977434  0.23990611    -0.76340
O366        O  0.13027378  0.85638996  0.31107634    -0.79830
O367        O  0.09853871  0.74291972  0.37960171    -0.80520
C368        C  0.11614998  0.85931478  0.26409985     0.94740
O369        O  0.06325803  0.82907734  0.38650545    -0.78470
O370        O  0.07921260  0.77599177  0.21528801    -0.83670
C371        C  0.01650360  0.74967948  0.27190640     0.97360
C372        C  0.11634774  0.75754233  0.21330263     1.03280
O373        O  0.05643789  0.73392581  0.27808080    -0.79310
C374        C  0.02128979  0.83415023  0.36179073     1.01580
Fe375      Fe  0.36487606  0.81945237  0.38484701     1.65780
Fe376      Fe  0.44635831  0.80556100  0.48234151     1.73250
Fe377      Fe  0.37198950  0.74870629  0.43408480     1.54420
O378        O  0.29940731  0.75818936  0.39619445    -0.83050
O379        O  0.48441974  0.77299620  0.45303522    -0.81350
O380        O  0.29432287  0.80924775  0.39842827    -0.85550
O381        O  0.36048681  0.78311575  0.33109002    -0.80410
O382        O  0.34799090  0.75261318  0.00034186    -0.82180
O383        O  0.48064188  0.83473058  0.43506272    -0.84930
C384        C  0.37944423  0.75580409  0.33161051     0.95840
C385        C  0.27474555  0.78321030  0.38734678     1.03280
O386        O  0.39153277  0.79218393  0.43558255    -1.13910
O387        O  0.40847346  0.83978557  0.01007188    -0.76340
O388        O  0.36703007  0.85640216  0.43890284    -0.79830
O389        O  0.39879757  0.74293632  0.37037282    -0.80520
C390        C  0.38115343  0.85932648  0.48587968     0.94740
O391        O  0.43405490  0.82909111  0.36347554    -0.78470
O392        O  0.41810818  0.77600138  0.03468845    -0.83670
C393        C  0.48082795  0.74969051  0.47807236     0.97370
C394        C  0.38097944  0.75754688  0.03667211     1.03280
O395        O  0.44089211  0.73393890  0.47189302    -0.79310
C396        C  0.47602467  0.83415814  0.38819039     1.01580
Fe397      Fe  0.36488778  0.67620272  0.13483971     1.65780
Fe398      Fe  0.44635055  0.69008710  0.23234436     1.73250
Fe399      Fe  0.37200952  0.74694990  0.18407898     1.54420
O400        O  0.39884395  0.75270911  0.12037739    -0.83050
O401        O  0.41808059  0.71964738  0.28468720    -0.81350
O402        O  0.36050699  0.71254058  0.08109019    -0.85550
O403        O  0.29433964  0.68641470  0.14842497    -0.80410
O404        O  0.44090839  0.76170844  0.22191184    -0.82180
O405        O  0.40845406  0.65586504  0.26006037    -0.84930
C406        C  0.27476146  0.71245212  0.13734401     0.95840
C407        C  0.37947587  0.73984847  0.08161449     1.03280
O408        O  0.39153873  0.70346894  0.18557994    -1.13910
O409        O  0.48064909  0.66091974  0.18506540    -0.76340
O410        O  0.43407076  0.66655746  0.11347209    -0.79830
O411        O  0.29942761  0.73747323  0.14617628    -0.80520
C412        C  0.47603820  0.66148723  0.13819162     0.94740
O413        O  0.36702581  0.63924875  0.18888542    -0.78470
O414        O  0.48442306  0.72264848  0.20304917    -0.83670
C415        C  0.38095762  0.73810911  0.28666386     0.97360
C416        C  0.48083517  0.74594830  0.22809860     1.03280
O417        O  0.34798474  0.74305284  0.25032460    -0.79310
C418        C  0.38113851  0.63632477  0.23586361     1.01580
Fe419      Fe  0.13246148  0.67619813  0.11514816     1.65780
Fe420      Fe  0.05099857  0.69007436  0.01763607     1.73250
Fe421      Fe  0.12533601  0.74694103  0.06589277     1.54420
O422        O  0.09850109  0.75270745  0.12959402    -0.83050
O423        O  0.07926473  0.71962967  0.46528852    -0.81350
O424        O  0.13683275  0.71253897  0.16888900    -0.85550
O425        O  0.20301073  0.68641085  0.10156579    -0.80410
O426        O  0.05643877  0.76169709  0.02805546    -0.82180
O427        O  0.08890381  0.65585178  0.98993449    -0.84930
C428        C  0.22258585  0.71244992  0.11263968     0.95840
C429        C  0.11786098  0.73984620  0.16836007     1.03280
O430        O  0.10580654  0.70346079  0.06440250    -1.13910
O431        O  0.01670042  0.66091186  0.06492166    -0.76340
O432        O  0.06327878  0.66655277  0.13651440    -0.79830
O433        O  0.19791718  0.73746928  0.10379950    -0.80520
C434        C  0.02131085  0.66148380  0.11179531     0.94740
O435        O  0.13033162  0.63924031  0.06111246    -0.78470
O436        O  0.01291172  0.72263857  0.54690796    -0.83670
C437        C  0.11638620  0.73809150  0.46330967     0.97370
C438        C  0.01650701  0.74594194  0.02186688     1.03280
O439        O  0.14936081  0.74303590  0.49964745    -0.79310
C440        C  0.11622051  0.63631386  0.01413499     1.01580
Fe441      Fe  0.38244696  0.92620892  0.11512849     1.65780
Fe442      Fe  0.30096523  0.94010674  0.01764455     1.73250
Fe443      Fe  0.37530766  0.99696608  0.06592632     1.54420
O444        O  0.34846847  0.00270321  0.12962816    -0.83050
O445        O  0.32924440  0.96967004  0.46531426    -0.81350
O446        O  0.38682704  0.96253420  0.16889458    -0.85550
O447        O  0.45299630  0.93643093  0.10154593    -0.80410
O448        O  0.30640703  0.51172983  0.02809481    -0.82180
O449        O  0.33884356  0.90588172  0.98990305    -0.84930
C450        C  0.47256973  0.96246791  0.11264386     0.95840
C451        C  0.36784576  0.98983802  0.16838346     1.03280
O452        O  0.35578747  0.95348219  0.06440276    -1.13910
O453        O  0.26666417  0.91093826  0.06491872    -0.76340
O454        O  0.31326740  0.91655569  0.13650254    -0.79830
O455        O  0.44789560  0.98748823  0.10382598    -0.80520
C456        C  0.27129110  0.91149508  0.11179317     0.94740
O457        O  0.38030416  0.88926706  0.06106391    -0.78470
O458        O  0.26290980  0.97266733  0.54696346    -0.83670
C459        C  0.36636349  0.98813488  0.46333965     0.97360
C460        C  0.26648872  0.49596245  0.02190249     1.03280
O461        O  0.39933154  0.99308623  0.49968022    -0.79310
C462        C  0.36617332  0.88634289  0.01408899     1.01580
Fe463      Fe  0.11487041  0.92620410  0.13486650     1.65780
Fe464      Fe  0.19634991  0.94009291  0.23235973     1.73250
Fe465      Fe  0.12200967  0.99695647  0.18408624     1.54420
O466        O  0.14885051  0.00270184  0.12038547    -0.83050
O467        O  0.16807245  0.96965077  0.28469459    -0.81350
O468        O  0.11050040  0.96253281  0.08111006    -0.85550
O469        O  0.04431887  0.93642668  0.14844380    -0.80410
O470        O  0.19090739  0.51171745  0.22192345    -0.82180
O471        O  0.15846275  0.90586709  0.26008485    -0.84930
C472        C  0.02474777  0.96246549  0.13735381     0.95840
C473        C  0.12948291  0.98983619  0.08162661     1.03280
O474        O  0.14153191  0.95347334  0.18559859    -1.13910
O475        O  0.23065346  0.91093003  0.18507943    -0.76340
O476        O  0.18405073  0.91655084  0.11349581    -0.79830
O477        O  0.04942345  0.98748395  0.14618103    -0.80520
C478        C  0.22602747  0.91149152  0.13820513     0.94740
O479        O  0.11700389  0.88925804  0.18892024    -0.78470
O480        O  0.23441947  0.97265668  0.20306578    -0.83670
C481        C  0.13095405  0.98811560  0.28667108     0.97370
C482        C  0.23083162  0.49595548  0.22811768     1.03280
O483        O  0.09798455  0.99306773  0.25033157    -0.79310
C484        C  0.13113183  0.88633121  0.23589461     1.01580
Fe485      Fe  0.11489198  0.56944026  0.38488189     1.65780
Fe486      Fe  0.19639327  0.55553276  0.48235215     1.73250
Fe487      Fe  0.12200510  0.49868693  0.43409042     1.54420
O488        O  0.04941695  0.50817661  0.39620692    -0.83050
O489        O  0.23442006  0.52296613  0.45300881    -0.81350
O490        O  0.04433696  0.55923428  0.39846611    -0.85550
O491        O  0.11048936  0.53311453  0.33111172    -0.80410
O492        O  0.09801270  0.50258520  0.00034856    -0.82180
O493        O  0.23067868  0.58470491  0.43507936    -0.84930
C494        C  0.12944619  0.50580362  0.33162135     0.95840
C495        C  0.02475553  0.53319941  0.38737079     1.03280
O496        O  0.14155156  0.54216523  0.43560379    -1.13910
O497        O  0.15853631  0.58975995  0.01011159    -0.76340
O498        O  0.11706277  0.60637592  0.43895541    -0.79830
O499        O  0.14880797  0.99293105  0.37037604    -0.80520
C500        C  0.13120275  0.60929865  0.48592903     0.94740
O501        O  0.18406807  0.57908425  0.36350095    -0.78470
O502        O  0.16813207  0.52597401  0.03469352    -0.83670
C503        C  0.23083809  0.99967135  0.47807112     0.97370
C504        C  0.13099891  0.50752333  0.03667882     1.03280
O505        O  0.19091103  0.98391138  0.47189335    -0.79310
C506        C  0.22604411  0.58414902  0.38820634     1.01580
Fe507      Fe  0.38245449  0.56945282  0.36512324     1.65780
Fe508      Fe  0.30095383  0.55554694  0.26764884     1.73250
Fe509      Fe  0.37532763  0.49869755  0.31592158     1.54420
O510        O  0.44791577  0.50818234  0.35380782    -0.83050
O511        O  0.26290963  0.52298449  0.29698175    -0.81350
O512        O  0.45301011  0.55923965  0.35154689    -0.85550
O513        O  0.38684535  0.53312948  0.41889694    -0.80410
O514        O  0.39932353  0.50258706  0.24966250    -0.82180
O515        O  0.26666935  0.58472023  0.31492018    -0.84930
C516        C  0.36787852  0.50582140  0.41838864     0.95840
C517        C  0.47258394  0.53320252  0.36264353     1.03280
O518        O  0.35579098  0.54217733  0.31440181    -1.13910
O519        O  0.33882198  0.58977126  0.23989238    -0.76340
O520        O  0.38029446  0.60638827  0.31104773    -0.79830
O521        O  0.34851650  0.99294942  0.37963392    -0.80520
C522        C  0.36615632  0.60931016  0.26407350     0.94740
O523        O  0.31327831  0.57909905  0.38649895    -0.78470
O524        O  0.32921141  0.52598325  0.21531408    -0.83670
C525        C  0.26649347  0.99968295  0.27193454     0.97370
C526        C  0.36633849  0.50752712  0.21333131     1.03280
O527        O  0.30642260  0.98392510  0.27811774    -0.79310
C528        C  0.27130072  0.58415746  0.36179289     1.01450
Fe529      Fe  0.13243774  0.81944062  0.86513097     1.65780
Fe530      Fe  0.05095698  0.80554729  0.76763966     1.73250
Fe531      Fe  0.12534038  0.74869613  0.81588849     1.54420
O532        O  0.19792186  0.75818395  0.85377705    -0.83050
O533        O  0.01291305  0.77297898  0.79695708    -0.81350
O534        O  0.20299121  0.80924270  0.85154431    -0.85550
O535        O  0.13683848  0.78310231  0.91888535    -0.80410
O536        O  0.14933681  0.75261023  0.74963260    -0.82180
O537        O  0.01667013  0.83471608  0.81491814    -0.84930
C538        C  0.11789151  0.75578800  0.91836380     0.95840
C539        C  0.22257640  0.78320738  0.86262501     1.03280
O540        O  0.10578679  0.79217245  0.81439511    -1.13910
O541        O  0.08883086  0.83977434  0.73990611    -0.76340
O542        O  0.13027377  0.85638996  0.81107634    -0.79830
O543        O  0.09853871  0.74291973  0.87960171    -0.80520
C544        C  0.11614997  0.85931479  0.76409985     0.94740
O545        O  0.06325804  0.82907734  0.88650545    -0.78470
O546        O  0.07921260  0.77599176  0.71528801    -0.83670
C547        C  0.01650360  0.74967948  0.77190640     0.97360
C548        C  0.11634773  0.75754232  0.71330263     1.03280
O549        O  0.05643788  0.73392580  0.77808080    -0.79310
C550        C  0.02128980  0.83415023  0.86179074     1.01580
Fe551      Fe  0.36487607  0.81945237  0.88484700     1.65780
Fe552      Fe  0.44635830  0.80556101  0.98234152     1.73250
Fe553      Fe  0.37198950  0.74870630  0.93408480     1.54420
O554        O  0.29940731  0.75818937  0.89619444    -0.83050
O555        O  0.48441974  0.77299621  0.95303524    -0.81350
O556        O  0.29432287  0.80924776  0.89842825    -0.85550
O557        O  0.36048682  0.78311575  0.83109001    -0.80410
O558        O  0.34799091  0.75261317  0.50034186    -0.82180
O559        O  0.48064187  0.83473059  0.93506273    -0.84930
C560        C  0.37944423  0.75580409  0.83161051     0.95840
C561        C  0.27474555  0.78321030  0.88734676     1.03280
O562        O  0.39153277  0.79218394  0.93558255    -1.13910
O563        O  0.40847348  0.83978557  0.51007189    -0.76340
O564        O  0.36703007  0.85640217  0.93890282    -0.79830
O565        O  0.39879757  0.74293633  0.87037282    -0.80520
C566        C  0.38115342  0.85932648  0.98587967     0.94740
O567        O  0.43405492  0.82909111  0.86347555    -0.78470
O568        O  0.41810819  0.77600137  0.53468845    -0.83670
C569        C  0.48082795  0.74969052  0.97807237     0.97370
C570        C  0.38097945  0.75754687  0.53667211     1.03280
O571        O  0.44089210  0.73393890  0.97189302    -0.79310
C572        C  0.47602467  0.83415815  0.88819041     1.01580
Fe573      Fe  0.36488779  0.67620272  0.63483971     1.65780
Fe574      Fe  0.44635056  0.69008710  0.73234437     1.73250
Fe575      Fe  0.37200952  0.74694990  0.68407899     1.54420
O576        O  0.39884395  0.75270911  0.62037739    -0.83050
O577        O  0.41808060  0.71964738  0.78468721    -0.81350
O578        O  0.36050700  0.71254058  0.58109020    -0.85550
O579        O  0.29433965  0.68641470  0.64842497    -0.80410
O580        O  0.44090839  0.76170844  0.72191184    -0.82180
O581        O  0.40845407  0.65586504  0.76006037    -0.84930
C582        C  0.27476146  0.71245212  0.63734402     0.95840
C583        C  0.37947588  0.73984846  0.58161450     1.03280
O584        O  0.39153873  0.70346894  0.68557994    -1.13910
O585        O  0.48064910  0.66091974  0.68506541    -0.76340
O586        O  0.43407077  0.66655746  0.61347210    -0.79830
O587        O  0.29942761  0.73747323  0.64617628    -0.80520
C588        C  0.47603821  0.66148724  0.63819164     0.94740
O589        O  0.36702582  0.63924875  0.68888543    -0.78470
O590        O  0.48442306  0.72264848  0.70304918    -0.83670
C591        C  0.38095763  0.73810911  0.78666387     0.97360
C592        C  0.48083518  0.74594830  0.72809860     1.03280
O593        O  0.34798475  0.74305284  0.75032460    -0.79310
C594        C  0.38113851  0.63632476  0.73586361     1.01580
Fe595      Fe  0.13246148  0.67619812  0.61514816     1.65780
Fe596      Fe  0.05099857  0.69007435  0.51763606     1.73250
Fe597      Fe  0.12533601  0.74694102  0.56589277     1.54420
O598        O  0.09850108  0.75270745  0.62959402    -0.83050
O599        O  0.07926473  0.71962968  0.96528852    -0.81350
O600        O  0.13683275  0.71253897  0.66888899    -0.85550
O601        O  0.20301073  0.68641085  0.60156580    -0.80410
O602        O  0.05643877  0.76169709  0.52805546    -0.82180
O603        O  0.08890382  0.65585177  0.48993449    -0.84930
C604        C  0.22258585  0.71244991  0.61263968     0.95840
C605        C  0.11786097  0.73984620  0.66836007     1.03280
O606        O  0.10580654  0.70346078  0.56440249    -1.13910
O607        O  0.01670042  0.66091185  0.56492165    -0.76340
O608        O  0.06327877  0.66655277  0.63651439    -0.79830
O609        O  0.19791718  0.73746927  0.60379950    -0.80520
C610        C  0.02131084  0.66148380  0.61179530     0.94740
O611        O  0.13033162  0.63924030  0.56111247    -0.78470
O612        O  0.01291173  0.72263858  0.04690798    -0.83670
C613        C  0.11638620  0.73809151  0.96330967     0.97370
C614        C  0.01650700  0.74594194  0.52186688     1.03280
O615        O  0.14936081  0.74303591  0.99964745    -0.79310
C616        C  0.11622051  0.63631385  0.51413500     1.01580
Fe617      Fe  0.38244696  0.92620891  0.61512851     1.65780
Fe618      Fe  0.30096522  0.94010672  0.51764456     1.73250
Fe619      Fe  0.37530765  0.99696607  0.56592632     1.54420
O620        O  0.34846845  0.00270320  0.62962816    -0.83050
O621        O  0.32924440  0.96967006  0.96531426    -0.81350
O622        O  0.38682703  0.96253419  0.66889459    -0.85550
O623        O  0.45299630  0.93643092  0.60154596    -0.80410
O624        O  0.30640700  0.51172984  0.52809482    -0.82180
O625        O  0.33884356  0.90588171  0.48990307    -0.84930
C626        C  0.47256973  0.96246790  0.61264388     0.95840
C627        C  0.36784575  0.98983802  0.66838346     1.03280
O628        O  0.35578747  0.95348218  0.56440277    -1.13910
O629        O  0.26666416  0.91093824  0.56491873    -0.76340
O630        O  0.31326739  0.91655568  0.63650255    -0.79830
O631        O  0.44789559  0.98748822  0.60382599    -0.80520
C632        C  0.27129109  0.91149507  0.61179318     0.94740
O633        O  0.38030416  0.88926705  0.56106392    -0.78470
O634        O  0.26290981  0.97266734  0.04696346    -0.83670
C635        C  0.36636350  0.98813490  0.96333964     0.97360
C636        C  0.26648870  0.49596245  0.52190250     1.03280
O637        O  0.39933154  0.99308625  0.99968022    -0.79310
C638        C  0.36617332  0.88634288  0.51408901     1.01580
Fe639      Fe  0.11487040  0.92620411  0.63486650     1.65780
Fe640      Fe  0.19634990  0.94009292  0.73235974     1.73250
Fe641      Fe  0.12200967  0.99695648  0.68408624     1.54420
O642        O  0.14885051  0.00270184  0.62038547    -0.83050
O643        O  0.16807244  0.96965077  0.78469459    -0.81350
O644        O  0.11050039  0.96253282  0.58111006    -0.85550
O645        O  0.04431885  0.93642669  0.64844379    -0.80410
O646        O  0.19090738  0.51171743  0.72192345    -0.82180
O647        O  0.15846273  0.90586710  0.76008485    -0.84930
C648        C  0.02474776  0.96246550  0.63735381     0.95840
C649        C  0.12948290  0.98983619  0.58162660     1.03280
O650        O  0.14153190  0.95347335  0.68559859    -1.13910
O651        O  0.23065344  0.91093003  0.68507944    -0.76340
O652        O  0.18405072  0.91655084  0.61349581    -0.79830
O653        O  0.04942345  0.98748396  0.64618103    -0.80520
C654        C  0.22602746  0.91149152  0.63820514     0.94740
O655        O  0.11700387  0.88925804  0.68892024    -0.78470
O656        O  0.23441946  0.97265668  0.70306578    -0.83670
C657        C  0.13095405  0.98811561  0.78667108     0.97370
C658        C  0.23083161  0.49595547  0.72811769     1.03280
O659        O  0.09798455  0.99306774  0.75033157    -0.79310
C660        C  0.13113181  0.88633122  0.73589461     1.01580
Fe661      Fe  0.11489199  0.56944027  0.88488188     1.65780
Fe662      Fe  0.19639328  0.55553278  0.98235215     1.73250
Fe663      Fe  0.12200510  0.49868694  0.93409042     1.54420
O664        O  0.04941696  0.50817662  0.89620692    -0.83050
O665        O  0.23442008  0.52296614  0.95300881    -0.81350
O666        O  0.04433696  0.55923429  0.89846610    -0.85550
O667        O  0.11048936  0.53311453  0.83111171    -0.80410
O668        O  0.09801269  0.50258518  0.50034855    -0.82180
O669        O  0.23067869  0.58470492  0.93507936    -0.84930
C670        C  0.12944619  0.50580362  0.83162135     0.95840
C671        C  0.02475553  0.53319943  0.88737079     1.03280
O672        O  0.14155157  0.54216525  0.93560379    -1.13910
O673        O  0.15853631  0.58975994  0.51011160    -0.76340
O674        O  0.11706278  0.60637594  0.93895540    -0.79830
O675        O  0.14880799  0.99293107  0.87037604    -0.80520
C676        C  0.13120275  0.60929866  0.98592902     0.94740
O677        O  0.18406808  0.57908425  0.86350094    -0.78470
O678        O  0.16813206  0.52597399  0.53469352    -0.83670
C679        C  0.23083810  0.99967136  0.97807112     0.97370
C680        C  0.13099890  0.50752331  0.53667882     1.03280
O681        O  0.19091105  0.98391139  0.97189335    -0.79310
C682        C  0.22604412  0.58414903  0.88820634     1.01580
Fe683      Fe  0.38245449  0.56945282  0.86512324     1.65780
Fe684      Fe  0.30095384  0.55554694  0.76764884     1.73250
Fe685      Fe  0.37532763  0.49869755  0.81592157     1.54420
O686        O  0.44791577  0.50818234  0.85380782    -0.83050
O687        O  0.26290962  0.52298449  0.79698174    -0.81350
O688        O  0.45301012  0.55923965  0.85154689    -0.85550
O689        O  0.38684536  0.53312947  0.91889694    -0.80410
O690        O  0.39932353  0.50258706  0.74966250    -0.82180
O691        O  0.26666937  0.58472023  0.81492018    -0.84930
C692        C  0.36787853  0.50582140  0.91838864     0.95840
C693        C  0.47258395  0.53320251  0.86264353     1.03280
O694        O  0.35579098  0.54217732  0.81440182    -1.13910
O695        O  0.33882199  0.58977126  0.73989238    -0.76340
O696        O  0.38029447  0.60638827  0.81104774    -0.79830
O697        O  0.34851651  0.99294943  0.87963392    -0.80520
C698        C  0.36615633  0.60931015  0.76407350     0.94740
O699        O  0.31327832  0.57909905  0.88649896    -0.78470
O700        O  0.32921141  0.52598325  0.71531409    -0.83670
C701        C  0.26649347  0.99968295  0.77193455     0.97370
C702        C  0.36633848  0.50752712  0.71333131     1.03280
O703        O  0.30642260  0.98392510  0.77811775    -0.79310
C704        C  0.27130073  0.58415747  0.86179289     1.01450
Fe705      Fe  0.63243774  0.31944062  0.36513099     1.65780
Fe706      Fe  0.55095698  0.30554730  0.26763967     1.73250
Fe707      Fe  0.62534038  0.24869614  0.31588848     1.54420
O708        O  0.69792185  0.25818395  0.35377705    -0.83050
O709        O  0.51291304  0.27297899  0.29695708    -0.81350
O710        O  0.70299120  0.30924270  0.35154433    -0.85550
O711        O  0.63683847  0.28310230  0.41888535    -0.80410
O712        O  0.64933681  0.25261024  0.24963260    -0.82180
O713        O  0.51667013  0.33471609  0.31491814    -0.84930
C714        C  0.61789151  0.25578799  0.41836379     0.95840
C715        C  0.72257640  0.28320738  0.36262502     1.03280
O716        O  0.60578679  0.29217246  0.31439512    -1.13910
O717        O  0.58883087  0.33977434  0.23990613    -0.76340
O718        O  0.63027377  0.35638996  0.31107636    -0.79830
O719        O  0.59853871  0.24291972  0.37960170    -0.80520
C720        C  0.61614999  0.35931479  0.26409987     0.94740
O721        O  0.56325803  0.32907734  0.38650546    -0.78470
O722        O  0.57921259  0.27599178  0.21528801    -0.83670
C723        C  0.51650360  0.24967949  0.27190639     0.97360
C724        C  0.61634773  0.25754234  0.21330263     1.03280
O725        O  0.55643788  0.23392582  0.27808079    -0.79310
C726        C  0.52128980  0.33415023  0.36179074     1.01580
Fe727      Fe  0.86487606  0.31945237  0.38484701     1.65780
Fe728      Fe  0.94635830  0.30556100  0.48234151     1.73250
Fe729      Fe  0.87198950  0.24870629  0.43408480     1.54420
O730        O  0.79940731  0.25818936  0.39619444    -0.83050
O731        O  0.98441973  0.27299620  0.45303522    -0.81350
O732        O  0.79432287  0.30924775  0.39842827    -0.85550
O733        O  0.86048680  0.28311575  0.33109002    -0.80410
O734        O  0.84799091  0.25261316  0.00034185    -0.82180
O735        O  0.98064186  0.33473058  0.43506273    -0.84930
C736        C  0.87944422  0.25580409  0.33161050     0.95840
C737        C  0.77474555  0.28321030  0.38734677     1.03280
O738        O  0.89153277  0.29218393  0.43558255    -1.13910
O739        O  0.90847347  0.33978556  0.01007188    -0.76340
O740        O  0.86703006  0.35640216  0.43890284    -0.79830
O741        O  0.89879757  0.24293633  0.37037281    -0.80520
C742        C  0.88115341  0.35932647  0.48587969     0.94740
O743        O  0.93405489  0.32909111  0.36347555    -0.78470
O744        O  0.91810817  0.27600137  0.03468844    -0.83670
C745        C  0.98082794  0.24969051  0.47807236     0.97370
C746        C  0.88097944  0.25754686  0.03667210     1.03280
O747        O  0.94089210  0.23393889  0.47189301    -0.79310
C748        C  0.97602466  0.33415815  0.38819041     1.01580
Fe749      Fe  0.86488778  0.17620272  0.13483971     1.65780
Fe750      Fe  0.94635054  0.19008710  0.23234437     1.73250
Fe751      Fe  0.87200951  0.24694990  0.18407898     1.54420
O752        O  0.89884395  0.25270911  0.12037738    -0.83050
O753        O  0.91808058  0.21964739  0.28468720    -0.81350
O754        O  0.86050699  0.21254057  0.08109019    -0.85550
O755        O  0.79433964  0.18641470  0.14842497    -0.80410
O756        O  0.94090838  0.26170844  0.22191183    -0.82180
O757        O  0.90845405  0.15586504  0.26006037    -0.84930
C758        C  0.77476145  0.21245212  0.13734401     0.95840
C759        C  0.87947587  0.23984846  0.08161449     1.03280
O760        O  0.89153872  0.20346894  0.18557994    -1.13910
O761        O  0.98064909  0.16091974  0.18506541    -0.76340
O762        O  0.93407075  0.16655746  0.11347210    -0.79830
O763        O  0.79942760  0.23747323  0.14617627    -0.80520
C764        C  0.97603820  0.16148723  0.13819164     0.94740
O765        O  0.86702580  0.13924875  0.18888543    -0.78470
O766        O  0.98442305  0.22264848  0.20304918    -0.83670
C767        C  0.88095761  0.23810911  0.28666386     0.97360
C768        C  0.98083517  0.24594830  0.22809860     1.03280
O769        O  0.84798474  0.24305285  0.25032459    -0.79310
C770        C  0.88113850  0.13632476  0.23586361     1.01580
Fe771      Fe  0.63246147  0.17619813  0.11514817     1.65780
Fe772      Fe  0.55099856  0.19007436  0.01763607     1.73250
Fe773      Fe  0.62533601  0.24694103  0.06589277     1.54420
O774        O  0.59850109  0.25270746  0.12959402    -0.83050
O775        O  0.57926473  0.21962966  0.46528851    -0.81350
O776        O  0.63683274  0.21253898  0.16888900    -0.85550
O777        O  0.70301072  0.18641085  0.10156581    -0.80410
O778        O  0.55643877  0.26169709  0.02805546    -0.82180
O779        O  0.58890380  0.15585178  0.98993451    -0.84930
C780        C  0.72258585  0.21244991  0.11263968     0.95840
C781        C  0.61786097  0.23984622  0.16836007     1.03280
O782        O  0.60580653  0.20346079  0.06440250    -1.13910
O783        O  0.51670041  0.16091186  0.06492167    -0.76340
O784        O  0.56327876  0.16655278  0.13651441    -0.79830
O785        O  0.69791718  0.23746928  0.10379949    -0.80520
C786        C  0.52131084  0.16148381  0.11179531     0.94740
O787        O  0.63033162  0.13924031  0.06111248    -0.78470
O788        O  0.51291172  0.22263856  0.54690794    -0.83670
C789        C  0.61638620  0.23809149  0.46330966     0.97370
C790        C  0.51650700  0.24594194  0.02186688     1.03280
O791        O  0.64936081  0.24303588  0.49964744    -0.79310
C792        C  0.61622051  0.13631386  0.01413501     1.01580
Fe793      Fe  0.88244697  0.42620892  0.11512850     1.65780
Fe794      Fe  0.80096522  0.44010673  0.01764456     1.73250
Fe795      Fe  0.87530765  0.49696608  0.06592632     1.54420
O796        O  0.84846845  0.50270320  0.12962816    -0.83050
O797        O  0.82924439  0.46967004  0.46531426    -0.81350
O798        O  0.88682703  0.46253420  0.16889458    -0.85550
O799        O  0.95299630  0.43643093  0.10154594    -0.80410
O800        O  0.80640703  0.01172982  0.02809481    -0.82180
O801        O  0.83884356  0.40588171  0.98990306    -0.84930
C802        C  0.97256973  0.46246791  0.11264387     0.95840
C803        C  0.86784575  0.48983802  0.16838345     1.03280
O804        O  0.85578747  0.45348218  0.06440276    -1.13910
O805        O  0.76666416  0.41093825  0.06491873    -0.76340
O806        O  0.81326740  0.41655568  0.13650254    -0.79830
O807        O  0.94789559  0.48748823  0.10382598    -0.80520
C808        C  0.77129110  0.41149507  0.11179318     0.94740
O809        O  0.88030417  0.38926706  0.06106391    -0.78470
O810        O  0.76290979  0.47266733  0.54696346    -0.83670
C811        C  0.86636349  0.48813487  0.46333965     0.97360
C812        C  0.76648873  0.99596244  0.02190249     1.03280
O813        O  0.89933153  0.49308623  0.49968022    -0.79310
C814        C  0.86617332  0.38634288  0.01408900     1.01580
Fe815      Fe  0.61487041  0.42620410  0.13486652     1.65780
Fe816      Fe  0.69634991  0.44009292  0.23235974     1.73250
Fe817      Fe  0.62200968  0.49695648  0.18408624     1.54420
O818        O  0.64885052  0.50270184  0.12038547    -0.83050
O819        O  0.66807244  0.46965078  0.28469459    -0.81350
O820        O  0.61050040  0.46253281  0.08111007    -0.85550
O821        O  0.54431886  0.43642669  0.14844381    -0.80410
O822        O  0.69090739  0.01171743  0.22192345    -0.82180
O823        O  0.65846275  0.40586710  0.26008486    -0.84930
C824        C  0.52474777  0.46246550  0.13735381     0.95840
C825        C  0.62948291  0.48983618  0.08162661     1.03280
O826        O  0.64153191  0.45347335  0.18559860    -1.13910
O827        O  0.73065346  0.41093003  0.18507945    -0.76340
O828        O  0.68405073  0.41655083  0.11349582    -0.79830
O829        O  0.54942345  0.48748395  0.14618103    -0.80520
C830        C  0.72602747  0.41149152  0.13820514     0.94740
O831        O  0.61700389  0.38925804  0.18892026    -0.78470
O832        O  0.73441946  0.47265669  0.20306577    -0.83670
C833        C  0.63095405  0.48811562  0.28667109     0.97370
C834        C  0.73083162  0.99595546  0.22811769     1.03280
O835        O  0.59798456  0.49306775  0.25033157    -0.79310
C836        C  0.63113183  0.38633122  0.23589463     1.01580
Fe837      Fe  0.61489199  0.06944024  0.38488189     1.65780
Fe838      Fe  0.69639328  0.05553275  0.48235215     1.73250
Fe839      Fe  0.62200510  0.99868692  0.43409042     1.54420
O840        O  0.54941696  0.00817660  0.39620692    -0.83050
O841        O  0.73442007  0.02296611  0.45300880    -0.81350
O842        O  0.54433697  0.05923427  0.39846611    -0.85550
O843        O  0.61048936  0.03311451  0.33111171    -0.80410
O844        O  0.59801270  0.00258520  0.00034856    -0.82180
O845        O  0.73067869  0.08470489  0.43507935    -0.84930
C846        C  0.62944619  0.00580360  0.33162135     0.95840
C847        C  0.52475553  0.03319941  0.38737079     1.03280
O848        O  0.64155157  0.04216522  0.43560379    -1.13910
O849        O  0.65853632  0.08975995  0.01011160    -0.76340
O850        O  0.61706278  0.10637591  0.43895541    -0.79830
O851        O  0.64880797  0.49293107  0.37037605    -0.80520
C852        C  0.63120276  0.10929863  0.48592902     0.94740
O853        O  0.68406808  0.07908423  0.36350094    -0.78470
O854        O  0.66813207  0.02597400  0.03469352    -0.83670
C855        C  0.73083808  0.49967135  0.47807112     0.97370
C856        C  0.63099891  0.00752332  0.03667882     1.03280
O857        O  0.69091102  0.48391139  0.47189335    -0.79310
C858        C  0.72604412  0.08414901  0.38820633     1.01580
Fe859      Fe  0.88245449  0.06945281  0.36512323     1.65780
Fe860      Fe  0.80095384  0.05554693  0.26764884     1.73250
Fe861      Fe  0.87532764  0.99869754  0.31592157     1.54420
O862        O  0.94791578  0.00818233  0.35380782    -0.83050
O863        O  0.76290963  0.02298448  0.29698174    -0.81350
O864        O  0.95301012  0.05923964  0.35154689    -0.85550
O865        O  0.88684536  0.03312947  0.41889693    -0.80410
O866        O  0.89932353  0.00258705  0.24966250    -0.82180
O867        O  0.76666936  0.08472022  0.31492017    -0.84930
C868        C  0.86787853  0.00582140  0.41838864     0.95840
C869        C  0.97258395  0.03320251  0.36264353     1.03280
O870        O  0.85579098  0.04217732  0.31440181    -1.13910
O871        O  0.83882198  0.08977125  0.23989238    -0.76340
O872        O  0.88029447  0.10638826  0.31104773    -0.79830
O873        O  0.84851650  0.49294941  0.37963392    -0.80520
C874        C  0.86615632  0.10931015  0.26407350     0.94740
O875        O  0.81327832  0.07909904  0.38649895    -0.78470
O876        O  0.82921141  0.02598324  0.21531408    -0.83670
C877        C  0.76649347  0.49968294  0.27193455     0.97370
C878        C  0.86633849  0.00752711  0.21333131     1.03280
O879        O  0.80642260  0.48392510  0.27811775    -0.79310
C880        C  0.77130072  0.08415745  0.36179289     1.01450
Fe881      Fe  0.63243773  0.31944061  0.86513096     1.65780
Fe882      Fe  0.55095697  0.30554727  0.76763965     1.73250
Fe883      Fe  0.62534038  0.24869611  0.81588848     1.54420
O884        O  0.69792185  0.25818394  0.85377704    -0.83050
O885        O  0.51291305  0.27297896  0.79695708    -0.81350
O886        O  0.70299120  0.30924269  0.85154430    -0.85550
O887        O  0.63683847  0.28310229  0.91888534    -0.80410
O888        O  0.64933680  0.25261021  0.74963259    -0.82180
O889        O  0.51667012  0.33471606  0.81491812    -0.84930
C890        C  0.61789151  0.25578798  0.91836379     0.95840
C891        C  0.72257640  0.28320737  0.86262500     1.03280
O892        O  0.60578679  0.29217244  0.81439510    -1.13910
O893        O  0.58883085  0.33977432  0.73990609    -0.76340
O894        O  0.63027376  0.35638994  0.81107632    -0.79830
O895        O  0.59853871  0.24291971  0.87960170    -0.80520
C896        C  0.61614996  0.35931477  0.76409983     0.94740
O897        O  0.56325803  0.32907732  0.88650544    -0.78470
O898        O  0.57921259  0.27599174  0.71528800    -0.83670
C899        C  0.51650360  0.24967947  0.77190639     0.97360
C900        C  0.61634773  0.25754231  0.71330262     1.03280
O901        O  0.55643788  0.23392579  0.77808079    -0.79310
C902        C  0.52128979  0.33415021  0.86179072     1.01580
Fe903      Fe  0.86487606  0.31945236  0.88484700     1.65780
Fe904      Fe  0.94635830  0.30556100  0.98234151     1.73250
Fe905      Fe  0.87198950  0.24870629  0.93408479     1.54420
O906        O  0.79940731  0.25818935  0.89619443    -0.83050
O907        O  0.98441973  0.27299620  0.95303522    -0.81350
O908        O  0.79432287  0.30924774  0.89842825    -0.85550
O909        O  0.86048682  0.28311575  0.83109001    -0.80410
O910        O  0.84799090  0.25261316  0.50034186    -0.82180
O911        O  0.98064187  0.33473057  0.93506272    -0.84930
C912        C  0.87944423  0.25580408  0.83161050     0.95840
C913        C  0.77474555  0.28321029  0.88734676     1.03280
O914        O  0.89153277  0.29218393  0.93558254    -1.13910
O915        O  0.90847347  0.33978556  0.51007190    -0.76340
O916        O  0.86703006  0.35640216  0.93890283    -0.79830
O917        O  0.89879758  0.24293632  0.87037281    -0.80520
C918        C  0.88115342  0.35932647  0.98587967     0.94740
O919        O  0.93405490  0.32909110  0.86347554    -0.78470
O920        O  0.91810818  0.27600137  0.53468844    -0.83670
C921        C  0.98082794  0.24969051  0.97807236     0.97370
C922        C  0.88097944  0.25754686  0.53667211     1.03280
O923        O  0.94089210  0.23393889  0.97189301    -0.79310
C924        C  0.97602467  0.33415814  0.88819040     1.01580
Fe925      Fe  0.86488779  0.17620271  0.63483971     1.65780
Fe926      Fe  0.94635057  0.19008709  0.73234436     1.73250
Fe927      Fe  0.87200953  0.24694989  0.68407898     1.54420
O928        O  0.89884396  0.25270910  0.62037738    -0.83050
O929        O  0.91808060  0.21964738  0.78468719    -0.81350
O930        O  0.86050700  0.21254057  0.58109019    -0.85550
O931        O  0.79433965  0.18641469  0.64842497    -0.80410
O932        O  0.94090839  0.26170843  0.72191183    -0.82180
O933        O  0.90845409  0.15586503  0.76006037    -0.84930
C934        C  0.77476146  0.21245211  0.63734401     0.95840
C935        C  0.87947587  0.23984845  0.58161449     1.03280
O936        O  0.89153874  0.20346893  0.68557993    -1.13910
O937        O  0.98064911  0.16091974  0.68506540    -0.76340
O938        O  0.93407077  0.16655745  0.61347209    -0.79830
O939        O  0.79942761  0.23747322  0.64617627    -0.80520
C940        C  0.97603821  0.16148723  0.63819162     0.94740
O941        O  0.86702583  0.13924874  0.68888543    -0.78470
O942        O  0.98442306  0.22264848  0.70304916    -0.83670
C943        C  0.88095763  0.23810910  0.78666386     0.97360
C944        C  0.98083518  0.24594829  0.72809859     1.03280
O945        O  0.84798475  0.24305284  0.75032459    -0.79310
C946        C  0.88113853  0.13632476  0.73586362     1.01580
Fe947      Fe  0.63246148  0.17619810  0.61514815     1.65780
Fe948      Fe  0.55099858  0.19007434  0.51763605     1.73250
Fe949      Fe  0.62533602  0.24694100  0.56589276     1.54420
O950        O  0.59850109  0.25270743  0.62959401    -0.83050
O951        O  0.57926472  0.21962967  0.96528852    -0.81350
O952        O  0.63683275  0.21253895  0.66888899    -0.85550
O953        O  0.70301074  0.18641083  0.60156580    -0.80410
O954        O  0.55643878  0.26169707  0.52805545    -0.82180
O955        O  0.58890383  0.15585176  0.48993449    -0.84930
C956        C  0.72258586  0.21244989  0.61263968     0.95840
C957        C  0.61786097  0.23984618  0.66836006     1.03280
O958        O  0.60580654  0.20346077  0.56440249    -1.13910
O959        O  0.51670042  0.16091184  0.56492164    -0.76340
O960        O  0.56327877  0.16655276  0.63651438    -0.79830
O961        O  0.69791719  0.23746925  0.60379949    -0.80520
C962        C  0.52131084  0.16148379  0.61179529     0.94740
O963        O  0.63033163  0.13924029  0.56111246    -0.78470
O964        O  0.51291172  0.22263858  0.04690797    -0.83670
C965        C  0.61638619  0.23809150  0.96330967     0.97370
C966        C  0.51650701  0.24594192  0.52186687     1.03280
O967        O  0.64936080  0.24303590  0.99964744    -0.79310
C968        C  0.61622052  0.13631383  0.51413499     1.01580
Fe969      Fe  0.88244694  0.42620891  0.61512851     1.65780
Fe970      Fe  0.80096521  0.44010672  0.51764456     1.73250
Fe971      Fe  0.87530764  0.49696607  0.56592632     1.54420
O972        O  0.84846845  0.50270320  0.62962815    -0.83050
O973        O  0.82924440  0.46967005  0.96531426    -0.81350
O974        O  0.88682701  0.46253420  0.66889459    -0.85550
O975        O  0.95299628  0.43643092  0.60154596    -0.80410
O976        O  0.80640701  0.01172983  0.52809482    -0.82180
O977        O  0.83884356  0.40588171  0.48990307    -0.84930
C978        C  0.97256971  0.46246790  0.61264388     0.95840
C979        C  0.86784574  0.48983802  0.66838345     1.03280
O980        O  0.85578746  0.45348218  0.56440277    -1.13910
O981        O  0.76666415  0.41093824  0.56491873    -0.76340
O982        O  0.81326738  0.41655568  0.63650255    -0.79830
O983        O  0.94789558  0.48748822  0.60382598    -0.80520
C984        C  0.77129108  0.41149507  0.61179318     0.94740
O985        O  0.88030415  0.38926705  0.56106393    -0.78470
O986        O  0.76290980  0.47266733  0.04696346    -0.83670
C987        C  0.86636349  0.48813489  0.96333964     0.97360
C988        C  0.76648871  0.99596245  0.52190250     1.03280
O989        O  0.89933153  0.49308625  0.99968022    -0.79310
C990        C  0.86617331  0.38634288  0.51408901     1.01580
Fe991      Fe  0.61487038  0.42620410  0.63486649     1.65780
Fe992      Fe  0.69634988  0.44009290  0.73235974     1.73250
Fe993      Fe  0.62200965  0.49695646  0.68408624     1.54420
O994        O  0.64885049  0.50270184  0.62038547    -0.83050
O995        O  0.66807242  0.46965076  0.78469459    -0.81350
O996        O  0.61050038  0.46253281  0.58111006    -0.85550
O997        O  0.54431884  0.43642668  0.64844378    -0.80410
O998        O  0.69090739  0.01171745  0.72192345    -0.82180
O999        O  0.65846271  0.40586708  0.76008484    -0.84930
C1000       C  0.52474775  0.46246549  0.63735381     0.95840
C1001       C  0.62948289  0.48983619  0.58162661     1.03280
O1002       O  0.64153189  0.45347334  0.68559859    -1.13910
O1003       O  0.73065343  0.41093002  0.68507944    -0.76340
O1004       O  0.68405071  0.41655083  0.61349580    -0.79830
O1005       O  0.54942343  0.48748395  0.64618103    -0.80520
C1006       C  0.72602744  0.41149151  0.63820513     0.94740
O1007       O  0.61700386  0.38925803  0.68892023    -0.78470
O1008       O  0.73441945  0.47265667  0.70306579    -0.83670
C1009       C  0.63095403  0.48811559  0.78667108     0.97370
C1010       C  0.73083162  0.99595548  0.72811769     1.03280
O1011       O  0.59798453  0.49306772  0.75033157    -0.79310
C1012       C  0.63113179  0.38633120  0.73589459     1.01580
Fe1013     Fe  0.61489200  0.06944027  0.88488189     1.65780
Fe1014     Fe  0.69639328  0.05553277  0.98235216     1.73250
Fe1015     Fe  0.62200510  0.99868695  0.93409042     1.54420
O1016       O  0.54941696  0.00817663  0.89620692    -0.83050
O1017       O  0.73442008  0.02296614  0.95300882    -0.81350
O1018       O  0.54433697  0.05923430  0.89846610    -0.85550
O1019       O  0.61048937  0.03311455  0.83111172    -0.80410
O1020       O  0.59801270  0.00258517  0.50034855    -0.82180
O1021       O  0.73067870  0.08470492  0.93507938    -0.84930
C1022       C  0.62944621  0.00580364  0.83162136     0.95840
C1023       C  0.52475554  0.03319943  0.88737078     1.03280
O1024       O  0.64155157  0.04216525  0.93560380    -1.13910
O1025       O  0.65853632  0.08975992  0.51011159    -0.76340
O1026       O  0.61706278  0.10637594  0.93895542    -0.79830
O1027       O  0.64880797  0.49293105  0.87037604    -0.80520
C1028       C  0.63120276  0.10929866  0.98592904     0.94740
O1029       O  0.68406809  0.07908426  0.86350096    -0.78470
O1030       O  0.66813207  0.02597398  0.53469351    -0.83670
C1031       C  0.73083809  0.49967134  0.97807111     0.97370
C1032       C  0.63099891  0.00752330  0.53667882     1.03280
O1033       O  0.69091103  0.48391138  0.97189334    -0.79310
C1034       C  0.72604413  0.08414903  0.88820636     1.01580
Fe1035     Fe  0.88245451  0.06945282  0.86512325     1.65780
Fe1036     Fe  0.80095385  0.05554694  0.76764885     1.73250
Fe1037     Fe  0.87532764  0.99869755  0.81592158     1.54420
O1038       O  0.94791579  0.00818233  0.85380782    -0.83050
O1039       O  0.76290964  0.02298449  0.79698175    -0.81350
O1040       O  0.95301013  0.05923965  0.85154690    -0.85550
O1041       O  0.88684537  0.03312947  0.91889694    -0.80410
O1042       O  0.89932354  0.00258706  0.74966250    -0.82180
O1043       O  0.76666938  0.08472023  0.81492019    -0.84930
C1044       C  0.86787854  0.00582139  0.91838864     0.95840
C1045       C  0.97258396  0.03320251  0.86264353     1.03280
O1046       O  0.85579099  0.04217732  0.81440182    -1.13910
O1047       O  0.83882200  0.08977126  0.73989239    -0.76340
O1048       O  0.88029449  0.10638826  0.81104775    -0.79830
O1049       O  0.84851650  0.49294942  0.87963391    -0.80520
C1050       C  0.86615634  0.10931015  0.76407351     0.94740
O1051       O  0.81327833  0.07909905  0.88649897    -0.78470
O1052       O  0.82921142  0.02598325  0.71531409    -0.83670
C1053       C  0.76649346  0.49968295  0.77193454     0.97370
C1054       C  0.86633849  0.00752713  0.71333131     1.03280
O1055       O  0.80642259  0.48392511  0.77811774    -0.79310
C1056       C  0.77130074  0.08415747  0.86179291     1.01450
Fe1057     Fe  0.63243774  0.81944062  0.36513096     1.65780
Fe1058     Fe  0.55095697  0.80554728  0.26763965     1.73250
Fe1059     Fe  0.62534037  0.74869612  0.31588849     1.54420
O1060       O  0.69792185  0.75818394  0.35377705    -0.83050
O1061       O  0.51291305  0.77297897  0.29695708    -0.81350
O1062       O  0.70299120  0.80924269  0.35154430    -0.85550
O1063       O  0.63683847  0.78310230  0.41888534    -0.80410
O1064       O  0.64933680  0.75261021  0.24963260    -0.82180
O1065       O  0.51667012  0.83471607  0.31491812    -0.84930
C1066       C  0.61789151  0.75578799  0.41836380     0.95840
C1067       C  0.72257640  0.78320737  0.36262500     1.03280
O1068       O  0.60578679  0.79217244  0.31439510    -1.13910
O1069       O  0.58883085  0.83977432  0.23990609    -0.76340
O1070       O  0.63027376  0.85638995  0.31107631    -0.79830
O1071       O  0.59853870  0.74291972  0.37960171    -0.80520
C1072       C  0.61614997  0.85931477  0.26409982     0.94740
O1073       O  0.56325803  0.82907733  0.38650543    -0.78470
O1074       O  0.57921259  0.77599175  0.21528800    -0.83670
C1075       C  0.51650360  0.74967947  0.27190640     0.97360
C1076       C  0.61634773  0.75754231  0.21330263     1.03280
O1077       O  0.55643788  0.73392579  0.27808080    -0.79310
C1078       C  0.52128979  0.83415022  0.36179072     1.01580
Fe1079     Fe  0.86487606  0.81945237  0.38484700     1.65780
Fe1080     Fe  0.94635830  0.80556101  0.48234151     1.73250
Fe1081     Fe  0.87198950  0.74870630  0.43408480     1.54420
O1082       O  0.79940731  0.75818936  0.39619444    -0.83050
O1083       O  0.98441973  0.77299621  0.45303522    -0.81350
O1084       O  0.79432286  0.80924775  0.39842825    -0.85550
O1085       O  0.86048681  0.78311575  0.33109001    -0.80410
O1086       O  0.84799092  0.75261315  0.00034186    -0.82180
O1087       O  0.98064187  0.83473058  0.43506272    -0.84930
C1088       C  0.87944423  0.75580408  0.33161051     0.95840
C1089       C  0.77474555  0.78321030  0.38734676     1.03280
O1090       O  0.89153277  0.79218394  0.43558255    -1.13910
O1091       O  0.90847349  0.83978555  0.01007190    -0.76340
O1092       O  0.86703006  0.85640217  0.43890283    -0.79830
O1093       O  0.89879757  0.74293632  0.37037282    -0.80520
C1094       C  0.88115341  0.85932648  0.48587967     0.94740
O1095       O  0.93405490  0.82909111  0.36347554    -0.78470
O1096       O  0.91810819  0.77600136  0.03468845    -0.83670
C1097       C  0.98082794  0.74969052  0.47807236     0.97370
C1098       C  0.88097946  0.75754685  0.03667211     1.03280
O1099       O  0.94089210  0.73393890  0.47189302    -0.79310
C1100       C  0.97602466  0.83415815  0.38819040     1.01580
Fe1101     Fe  0.86488779  0.67620270  0.13483972     1.65780
Fe1102     Fe  0.94635056  0.69008709  0.23234437     1.73250
Fe1103     Fe  0.87200952  0.74694989  0.18407899     1.54420
O1104       O  0.89884395  0.75270909  0.12037739    -0.83050
O1105       O  0.91808059  0.71964737  0.28468721    -0.81350
O1106       O  0.86050700  0.71254056  0.08109020    -0.85550
O1107       O  0.79433965  0.68641468  0.14842497    -0.80410
O1108       O  0.94090838  0.76170843  0.22191184    -0.82180
O1109       O  0.90845407  0.65586503  0.26006038    -0.84930
C1110       C  0.77476146  0.71245210  0.13734402     0.95840
C1111       C  0.87947588  0.73984844  0.08161450     1.03280
O1112       O  0.89153873  0.70346893  0.18557995    -1.13910
O1113       O  0.98064911  0.66091973  0.18506542    -0.76340
O1114       O  0.93407077  0.66655745  0.11347210    -0.79830
O1115       O  0.79942761  0.73747321  0.14617628    -0.80520
C1116       C  0.97603822  0.66148723  0.13819164     0.94740
O1117       O  0.86702582  0.63924874  0.18888543    -0.78470
O1118       O  0.98442306  0.72264847  0.20304919    -0.83670
C1119       C  0.88095762  0.73810910  0.28666387     0.97360
C1120       C  0.98083517  0.74594829  0.22809860     1.03280
O1121       O  0.84798474  0.74305283  0.25032460    -0.79310
C1122       C  0.88113852  0.63632475  0.23586362     1.01580
Fe1123     Fe  0.63246147  0.67619810  0.11514816     1.65780
Fe1124     Fe  0.55099857  0.69007434  0.01763606     1.73250
Fe1125     Fe  0.62533602  0.74694100  0.06589277     1.54420
O1126       O  0.59850109  0.75270743  0.12959402    -0.83050
O1127       O  0.57926473  0.71962968  0.46528852    -0.81350
O1128       O  0.63683274  0.71253895  0.16888900    -0.85550
O1129       O  0.70301073  0.68641082  0.10156581    -0.80410
O1130       O  0.55643878  0.76169707  0.02805546    -0.82180
O1131       O  0.58890381  0.65585176  0.98993449    -0.84930
C1132       C  0.72258585  0.71244989  0.11263969     0.95840
C1133       C  0.61786097  0.73984618  0.16836007     1.03280
O1134       O  0.60580654  0.70346077  0.06440250    -1.13910
O1135       O  0.51670041  0.66091184  0.06492165    -0.76340
O1136       O  0.56327876  0.66655276  0.13651439    -0.79830
O1137       O  0.69791719  0.73746925  0.10379950    -0.80520
C1138       C  0.52131083  0.66148379  0.11179530     0.94740
O1139       O  0.63033162  0.63924029  0.06111246    -0.78470
O1140       O  0.51291172  0.72263858  0.54690797    -0.83670
C1141       C  0.61638619  0.73809151  0.46330967     0.97370
C1142       C  0.51650701  0.74594192  0.02186688     1.03280
O1143       O  0.64936080  0.74303591  0.49964745    -0.79310
C1144       C  0.61622051  0.63631384  0.01413500     1.01580
Fe1145     Fe  0.88244697  0.92620891  0.11512851     1.65780
Fe1146     Fe  0.80096524  0.94010671  0.01764456     1.73250
Fe1147     Fe  0.87530766  0.99696607  0.06592632     1.54420
O1148       O  0.84846846  0.00270320  0.12962815    -0.83050
O1149       O  0.82924439  0.96967005  0.46531426    -0.81350
O1150       O  0.88682703  0.96253419  0.16889459    -0.85550
O1151       O  0.95299631  0.93643091  0.10154596    -0.80410
O1152       O  0.80640701  0.51172983  0.02809481    -0.82180
O1153       O  0.83884359  0.90588170  0.98990307    -0.84930
C1154       C  0.97256973  0.96246790  0.11264388     0.95840
C1155       C  0.86784576  0.98983802  0.16838346     1.03280
O1156       O  0.85578748  0.95348217  0.06440277    -1.13910
O1157       O  0.76666417  0.91093824  0.06491872    -0.76340
O1158       O  0.81326740  0.91655567  0.13650254    -0.79830
O1159       O  0.94789560  0.98748822  0.10382598    -0.80520
C1160       C  0.77129110  0.91149506  0.11179317     0.94740
O1161       O  0.88030417  0.88926705  0.06106393    -0.78470
O1162       O  0.76290980  0.97266734  0.54696347    -0.83670
C1163       C  0.86636348  0.98813489  0.46333965     0.97360
C1164       C  0.76648871  0.49596244  0.02190249     1.03280
O1165       O  0.89933153  0.99308624  0.49968022    -0.79310
C1166       C  0.86617334  0.88634287  0.01408902     1.01580
Fe1167     Fe  0.61487040  0.92620410  0.13486649     1.65780
Fe1168     Fe  0.69634990  0.94009290  0.23235973     1.73250
Fe1169     Fe  0.62200967  0.99695646  0.18408624     1.54420
O1170       O  0.64885051  0.00270184  0.12038547    -0.83050
O1171       O  0.66807243  0.96965075  0.28469458    -0.81350
O1172       O  0.61050040  0.96253281  0.08111005    -0.85550
O1173       O  0.54431886  0.93642668  0.14844377    -0.80410
O1174       O  0.69090740  0.51171744  0.22192344    -0.82180
O1175       O  0.65846272  0.90586708  0.26008483    -0.84930
C1176       C  0.52474777  0.96246550  0.13735380     0.95840
C1177       C  0.62948291  0.98983619  0.08162660     1.03280
O1178       O  0.64153191  0.95347334  0.18559858    -1.13910
O1179       O  0.73065345  0.91093002  0.18507943    -0.76340
O1180       O  0.68405073  0.91655083  0.11349580    -0.79830
O1181       O  0.54942345  0.98748395  0.14618102    -0.80520
C1182       C  0.72602746  0.91149151  0.13820513     0.94740
O1183       O  0.61700387  0.88925803  0.18892022    -0.78470
O1184       O  0.73441946  0.97265667  0.20306578    -0.83670
C1185       C  0.63095404  0.98811559  0.28667108     0.97370
C1186       C  0.73083163  0.49595548  0.22811768     1.03280
O1187       O  0.59798455  0.99306772  0.25033157    -0.79310
C1188       C  0.63113181  0.88633120  0.23589458     1.01580
Fe1189     Fe  0.61489199  0.56944027  0.38488189     1.65780
Fe1190     Fe  0.69639327  0.55553277  0.48235216     1.73250
Fe1191     Fe  0.62200509  0.49868694  0.43409042     1.54420
O1192       O  0.54941695  0.50817662  0.39620692    -0.83050
O1193       O  0.73442006  0.52296613  0.45300882    -0.81350
O1194       O  0.54433696  0.55923429  0.39846611    -0.85550
O1195       O  0.61048936  0.53311454  0.33111172    -0.80410
O1196       O  0.59801270  0.50258519  0.00034855    -0.82180
O1197       O  0.73067869  0.58470491  0.43507937    -0.84930
C1198       C  0.62944620  0.50580363  0.33162135     0.95840
C1199       C  0.52475553  0.53319943  0.38737079     1.03280
O1200       O  0.64155156  0.54216524  0.43560380    -1.13910
O1201       O  0.65853632  0.58975993  0.01011159    -0.76340
O1202       O  0.61706277  0.60637593  0.43895542    -0.79830
O1203       O  0.64880797  0.99293104  0.37037604    -0.80520
C1204       C  0.63120275  0.60929865  0.48592903     0.94740
O1205       O  0.68406808  0.57908425  0.36350096    -0.78470
O1206       O  0.66813207  0.52597399  0.03469351    -0.83670
C1207       C  0.73083809  0.99967134  0.47807111     0.97370
C1208       C  0.63099892  0.50752331  0.03667882     1.03280
O1209       O  0.69091104  0.98391137  0.47189335    -0.79310
C1210       C  0.72604412  0.58414902  0.38820635     1.01580
Fe1211     Fe  0.88245449  0.56945281  0.36512325     1.65780
Fe1212     Fe  0.80095384  0.55554693  0.26764885     1.73250
Fe1213     Fe  0.87532764  0.49869754  0.31592158     1.54420
O1214       O  0.94791578  0.50818233  0.35380782    -0.83050
O1215       O  0.76290963  0.52298448  0.29698176    -0.81350
O1216       O  0.95301012  0.55923964  0.35154690    -0.85550
O1217       O  0.88684536  0.53312946  0.41889694    -0.80410
O1218       O  0.89932353  0.50258705  0.24966250    -0.82180
O1219       O  0.76666936  0.58472022  0.31492019    -0.84930
C1220       C  0.86787853  0.50582139  0.41838864     0.95840
C1221       C  0.97258395  0.53320250  0.36264353     1.03280
O1222       O  0.85579098  0.54217731  0.31440182    -1.13910
O1223       O  0.83882198  0.58977125  0.23989239    -0.76340
O1224       O  0.88029447  0.60638826  0.31104775    -0.79830
O1225       O  0.84851650  0.99294942  0.37963392    -0.80520
C1226       C  0.86615633  0.60931014  0.26407351     0.94740
O1227       O  0.81327832  0.57909904  0.38649897    -0.78470
O1228       O  0.82921141  0.52598324  0.21531409    -0.83670
C1229       C  0.76649347  0.99968294  0.27193454     0.97370
C1230       C  0.86633848  0.50752712  0.21333131     1.03280
O1231       O  0.80642260  0.98392510  0.27811774    -0.79310
C1232       C  0.77130073  0.58415746  0.36179291     1.01450
Fe1233     Fe  0.63243775  0.81944062  0.86513100     1.65780
Fe1234     Fe  0.55095699  0.80554729  0.76763967     1.73250
Fe1235     Fe  0.62534039  0.74869613  0.81588849     1.54420
O1236       O  0.69792187  0.75818394  0.85377705    -0.83050
O1237       O  0.51291306  0.77297898  0.79695708    -0.81350
O1238       O  0.70299122  0.80924269  0.85154435    -0.85550
O1239       O  0.63683848  0.78310229  0.91888536    -0.80410
O1240       O  0.64933682  0.75261024  0.74963261    -0.82180
O1241       O  0.51667015  0.83471608  0.81491815    -0.84930
C1242       C  0.61789152  0.75578798  0.91836380     0.95840
C1243       C  0.72257641  0.78320737  0.86262503     1.03280
O1244       O  0.60578681  0.79217245  0.81439513    -1.13910
O1245       O  0.58883089  0.83977434  0.73990614    -0.76340
O1246       O  0.63027379  0.85638996  0.81107637    -0.79830
O1247       O  0.59853872  0.74291971  0.87960171    -0.80520
C1248       C  0.61615000  0.85931479  0.76409988     0.94740
O1249       O  0.56325804  0.82907733  0.88650547    -0.78470
O1250       O  0.57921261  0.77599177  0.71528802    -0.83670
C1251       C  0.51650361  0.74967949  0.77190640     0.97360
C1252       C  0.61634774  0.75754233  0.71330264     1.03280
O1253       O  0.55643789  0.73392581  0.77808079    -0.79310
C1254       C  0.52128981  0.83415023  0.86179075     1.01580
Fe1255     Fe  0.86487607  0.81945236  0.88484702     1.65780
Fe1256     Fe  0.94635832  0.80556099  0.98234152     1.73250
Fe1257     Fe  0.87198952  0.74870628  0.93408480     1.54420
O1258       O  0.79940732  0.75818935  0.89619445    -0.83050
O1259       O  0.98441974  0.77299619  0.95303521    -0.81350
O1260       O  0.79432288  0.80924774  0.89842828    -0.85550
O1261       O  0.86048682  0.78311575  0.83109002    -0.80410
O1262       O  0.84799090  0.75261318  0.50034186    -0.82180
O1263       O  0.98064188  0.83473057  0.93506273    -0.84930
C1264       C  0.87944424  0.75580408  0.83161051     0.95840
C1265       C  0.77474556  0.78321029  0.88734679     1.03280
O1266       O  0.89153278  0.79218392  0.93558256    -1.13910
O1267       O  0.90847347  0.83978557  0.51007188    -0.76340
O1268       O  0.86703008  0.85640215  0.93890285    -0.79830
O1269       O  0.89879759  0.74293632  0.87037282    -0.80520
C1270       C  0.88115344  0.85932646  0.98587969     0.94740
O1271       O  0.93405491  0.82909110  0.86347556    -0.78470
O1272       O  0.91810818  0.77600138  0.53468844    -0.83670
C1273       C  0.98082796  0.74969050  0.97807236     0.97370
C1274       C  0.88097944  0.75754688  0.53667211     1.03280
O1275       O  0.94089212  0.73393889  0.97189301    -0.79310
C1276       C  0.97602467  0.83415814  0.88819041     1.01580
Fe1277     Fe  0.86488778  0.67620272  0.63483971     1.65780
Fe1278     Fe  0.94635056  0.69008710  0.73234436     1.73250
Fe1279     Fe  0.87200952  0.74694991  0.68407899     1.54420
O1280       O  0.89884395  0.75270912  0.62037739    -0.83050
O1281       O  0.91808060  0.71964738  0.78468720    -0.81350
O1282       O  0.86050699  0.71254059  0.58109019    -0.85550
O1283       O  0.79433964  0.68641471  0.64842496    -0.80410
O1284       O  0.94090839  0.76170844  0.72191184    -0.82180
O1285       O  0.90845407  0.65586504  0.76006036    -0.84930
C1286       C  0.77476146  0.71245212  0.63734401     0.95840
C1287       C  0.87947587  0.73984847  0.58161449     1.03280
O1288       O  0.89153873  0.70346895  0.68557993    -1.13910
O1289       O  0.98064910  0.66091974  0.68506540    -0.76340
O1290       O  0.93407076  0.66655747  0.61347209    -0.79830
O1291       O  0.79942761  0.73747323  0.64617628    -0.80520
C1292       C  0.97603821  0.66148724  0.63819162     0.94740
O1293       O  0.86702581  0.63924875  0.68888542    -0.78470
O1294       O  0.98442306  0.72264848  0.70304917    -0.83670
C1295       C  0.88095763  0.73810911  0.78666386     0.97360
C1296       C  0.98083517  0.74594830  0.72809859     1.03280
O1297       O  0.84798475  0.74305284  0.75032460    -0.79310
C1298       C  0.88113851  0.63632477  0.73586361     1.01580
Fe1299     Fe  0.63246148  0.67619813  0.61514817     1.65780
Fe1300     Fe  0.55099857  0.69007436  0.51763607     1.73250
Fe1301     Fe  0.62533601  0.74694103  0.56589277     1.54420
O1302       O  0.59850109  0.75270745  0.62959403    -0.83050
O1303       O  0.57926473  0.71962966  0.96528852    -0.81350
O1304       O  0.63683275  0.71253898  0.66888900    -0.85550
O1305       O  0.70301073  0.68641085  0.60156580    -0.80410
O1306       O  0.55643877  0.76169709  0.52805547    -0.82180
O1307       O  0.58890382  0.65585178  0.48993450    -0.84930
C1308       C  0.72258585  0.71244992  0.61263968     0.95840
C1309       C  0.61786098  0.73984621  0.66836008     1.03280
O1310       O  0.60580654  0.70346079  0.56440250    -1.13910
O1311       O  0.51670042  0.66091185  0.56492166    -0.76340
O1312       O  0.56327877  0.66655278  0.63651440    -0.79830
O1313       O  0.69791718  0.73746928  0.60379950    -0.80520
C1314       C  0.52131084  0.66148381  0.61179531     0.94740
O1315       O  0.63033162  0.63924031  0.56111247    -0.78470
O1316       O  0.51291172  0.72263856  0.04690795    -0.83670
C1317       C  0.61638620  0.73809149  0.96330967     0.97370
C1318       C  0.51650700  0.74594194  0.52186688     1.03280
O1319       O  0.64936081  0.74303588  0.99964745    -0.79310
C1320       C  0.61622051  0.63631385  0.51413501     1.01580
Fe1321     Fe  0.88244696  0.92620892  0.61512850     1.65780
Fe1322     Fe  0.80096521  0.94010673  0.51764457     1.73250
Fe1323     Fe  0.87530764  0.99696608  0.56592632     1.54420
O1324       O  0.84846845  0.00270321  0.62962816    -0.83050
O1325       O  0.82924442  0.96967004  0.96531426    -0.81350
O1326       O  0.88682703  0.96253420  0.66889458    -0.85550
O1327       O  0.95299630  0.93643093  0.60154594    -0.80410
O1328       O  0.80640701  0.51172982  0.52809481    -0.82180
O1329       O  0.83884354  0.90588172  0.48990306    -0.84930
C1330       C  0.97256972  0.96246792  0.61264387     0.95840
C1331       C  0.86784575  0.98983803  0.66838346     1.03280
O1332       O  0.85578746  0.95348219  0.56440277    -1.13910
O1333       O  0.76666416  0.91093825  0.56491874    -0.76340
O1334       O  0.81326740  0.91655568  0.63650255    -0.79830
O1335       O  0.94789559  0.98748824  0.60382598    -0.80520
C1336       C  0.77129110  0.91149507  0.61179319     0.94740
O1337       O  0.88030416  0.88926706  0.56106391    -0.78470
O1338       O  0.76290981  0.97266732  0.04696344    -0.83670
C1339       C  0.86636351  0.98813488  0.96333965     0.97360
C1340       C  0.76648871  0.49596244  0.52190249     1.03280
O1341       O  0.89933155  0.99308623  0.99968022    -0.79310
C1342       C  0.86617331  0.88634289  0.51408900     1.01580
Fe1343     Fe  0.61487040  0.92620410  0.63486653     1.65780
Fe1344     Fe  0.69634991  0.94009292  0.73235975     1.73250
Fe1345     Fe  0.62200967  0.99695648  0.68408624     1.54420
O1346       O  0.64885051  0.00270184  0.62038547    -0.83050
O1347       O  0.66807244  0.96965078  0.78469460    -0.81350
O1348       O  0.61050039  0.96253281  0.58111007    -0.85550
O1349       O  0.54431886  0.93642668  0.64844382    -0.80410
O1350       O  0.69090737  0.51171743  0.72192345    -0.82180
O1351       O  0.65846275  0.90586710  0.76008488    -0.84930
C1352       C  0.52474776  0.96246550  0.63735382     0.95840
C1353       C  0.62948290  0.98983618  0.58162661     1.03280
O1354       O  0.64153191  0.95347335  0.68559861    -1.13910
O1355       O  0.73065346  0.91093004  0.68507946    -0.76340
O1356       O  0.68405072  0.91655083  0.61349583    -0.79830
O1357       O  0.54942345  0.98748395  0.64618104    -0.80520
C1358       C  0.72602747  0.91149152  0.63820516     0.94740
O1359       O  0.61700389  0.88925804  0.68892028    -0.78470
O1360       O  0.73441946  0.97265669  0.70306578    -0.83670
C1361       C  0.63095405  0.98811562  0.78667109     0.97370
C1362       C  0.73083161  0.49595546  0.72811769     1.03280
O1363       O  0.59798456  0.99306775  0.75033158    -0.79310
C1364       C  0.63113183  0.88633122  0.73589464     1.01580
Fe1365     Fe  0.61489199  0.56944025  0.88488188     1.65780
Fe1366     Fe  0.69639328  0.55553276  0.98235214     1.73250
Fe1367     Fe  0.62200510  0.49868693  0.93409042     1.54420
O1368       O  0.54941695  0.50817661  0.89620692    -0.83050
O1369       O  0.73442007  0.52296612  0.95300880    -0.81350
O1370       O  0.54433697  0.55923428  0.89846611    -0.85550
O1371       O  0.61048936  0.53311452  0.83111171    -0.80410
O1372       O  0.59801269  0.50258519  0.50034856    -0.82180
O1373       O  0.73067869  0.58470490  0.93507935    -0.84930
C1374       C  0.62944619  0.50580361  0.83162135     0.95840
C1375       C  0.52475553  0.53319942  0.88737079     1.03280
O1376       O  0.64155156  0.54216523  0.93560379    -1.13910
O1377       O  0.65853631  0.58975994  0.51011160    -0.76340
O1378       O  0.61706278  0.60637592  0.93895540    -0.79830
O1379       O  0.64880798  0.99293108  0.87037605    -0.80520
C1380       C  0.63120276  0.60929864  0.98592902     0.94740
O1381       O  0.68406808  0.57908424  0.86350094    -0.78470
O1382       O  0.66813205  0.52597400  0.53469352    -0.83670
C1383       C  0.73083810  0.99967136  0.97807112     0.97370
C1384       C  0.63099890  0.50752332  0.53667882     1.03280
O1385       O  0.69091103  0.98391140  0.97189335    -0.79310
C1386       C  0.72604412  0.58414902  0.88820633     1.01580
Fe1387     Fe  0.88245449  0.56945282  0.86512323     1.65780
Fe1388     Fe  0.80095384  0.55554694  0.76764883     1.73250
Fe1389     Fe  0.87532764  0.49869756  0.81592157     1.54420
O1390       O  0.94791578  0.50818234  0.85380781    -0.83050
O1391       O  0.76290962  0.52298449  0.79698174    -0.81350
O1392       O  0.95301012  0.55923965  0.85154689    -0.85550
O1393       O  0.88684536  0.53312948  0.91889693    -0.80410
O1394       O  0.89932353  0.50258706  0.74966249    -0.82180
O1395       O  0.76666936  0.58472023  0.81492017    -0.84930
C1396       C  0.86787853  0.50582140  0.91838864     0.95840
C1397       C  0.97258395  0.53320252  0.86264353     1.03280
O1398       O  0.85579098  0.54217733  0.81440181    -1.13910
O1399       O  0.83882199  0.58977126  0.73989237    -0.76340
O1400       O  0.88029447  0.60638827  0.81104773    -0.79830
O1401       O  0.84851651  0.99294942  0.87963392    -0.80520
C1402       C  0.86615633  0.60931016  0.76407349     0.94740
O1403       O  0.81327832  0.57909905  0.88649895    -0.78470
O1404       O  0.82921141  0.52598325  0.71531408    -0.83670
C1405       C  0.76649347  0.99968296  0.77193455     0.97370
C1406       C  0.86633848  0.50752712  0.71333130     1.03280
O1407       O  0.80642260  0.98392511  0.77811774    -0.79310
C1408       C  0.77130072  0.58415746  0.86179289     1.01450
loop_ 
_geom_bond_atom_site_label_1 
_geom_bond_atom_site_label_2 
_geom_bond_distance 
_geom_bond_site_symmetry_2 
_ccdc_geom_bond_type 
Fe1          O17   2.071       .  S
Fe1           O7   2.154       .  S
Fe1          O14   2.182       .  S
Fe1           O6   2.036       .  S
Fe1          O12   1.899       .  S
Fe2           O5   1.979       .  S
Fe2           O9   2.110       .  S
Fe2          O13   2.009       .  S
Fe2          O18   2.139       .  S
Fe2          O12   1.922       .  S
Fe3          O21   2.112       .  S
Fe3           O8   2.014       .  S
Fe3          O15   1.991       .  S
Fe3           O4   2.139       .  S
Fe3          O12   1.961       .  S
O4           C11   1.282       .  A
O5           C19   1.235       .  A
O6           C11   1.270       .  A
O7           C10   1.292       .  A
O8           C20   1.268       .  A
O9           C22   1.277       .  A
C10          O15   1.255       .  A
C10          C85   1.459       .  S
C11          C33   1.484       .  S
O13          C16   1.258       .  A
O14          C16   1.303       .  A
C16         C132   1.490       .  S
O17          C22   1.264       .  A
O18          C20   1.290       .  A
C19          O21   1.270       .  A
C19         C768   1.451   1_455  S
C20          C77   1.459       .  S
C22         C748   1.498   1_455  S
Fe23         O39   2.071       .  S
Fe23         O29   2.154       .  S
Fe23         O36   2.182       .  S
Fe23         O28   2.036       .  S
Fe23         O34   1.899       .  S
Fe24         O27   1.979       .  S
Fe24         O31   2.110       .  S
Fe24        O211   2.009       .  S
Fe24        O216   2.139       .  S
Fe24         O34   1.922       .  S
Fe25         O43   2.112       .  S
Fe25         O37   1.991       .  S
Fe25         O26   2.139       .  S
Fe25        O206   2.014       .  S
Fe25         O34   1.961       .  S
O26          C33   1.282       .  A
O27          C41   1.235       .  A
O28          C33   1.270       .  A
O29          C32   1.292       .  A
O30        Fe201   2.014   1_554  S
O30          C42   1.268       .  A
O31          C44   1.277       .  A
C32          O37   1.255       .  A
C32          C63   1.459       .  S
O35        Fe200   2.009   1_554  S
O35         C214   1.258   1_554  A
O36          C38   1.303       .  A
C38         O211   1.258       .  A
C38         C286   1.490       .  S
O39          C44   1.264       .  A
O40        Fe200   2.139   1_554  S
O40          C42   1.290       .  A
C41          O43   1.270       .  A
C41         C966   1.451       .  S
C42          C55   1.459       .  S
C44         C726   1.498       .  S
Fe45         O61   2.182       .  S
Fe45         O51   2.036       .  S
Fe45         O58   2.071       .  S
Fe45         O50   2.154       .  S
Fe45         O56   1.899       .  S
Fe46         O49   2.139       .  S
Fe46         O53   2.009       .  S
Fe46         O57   2.110       .  S
Fe46         O62   1.979       .  S
Fe46         O56   1.922       .  S
Fe47         O65   2.014       .  S
Fe47         O52   2.112       .  S
Fe47         O59   2.139       .  S
Fe47         O48   1.991       .  S
Fe47         O56   1.961       .  S
O48          C55   1.255       .  A
O49          C63   1.291       .  A
O50          C55   1.292       .  A
O51          C54   1.270       .  A
O52          C64   1.270       .  A
O53          C66   1.258       .  A
C54          O59   1.282       .  A
C54          C76   1.484       .  S
O57          C60   1.277       .  A
O58          C60   1.264       .  A
C60         C786   1.498       .  S
O61          C66   1.303       .  A
O62          C64   1.235       .  A
C63          O65   1.268       .  A
C64         C723   1.451       .  S
C66         C170   1.490       .  S
Fe67         O83   2.182       .  S
Fe67         O73   2.036       .  S
Fe67         O80   2.071       .  S
Fe67         O72   2.154       .  S
Fe67         O78   1.899       .  S
Fe68         O75   2.009   1_554  S
Fe68         O79   2.110       .  S
Fe68        O247   2.139   1_554  S
Fe68        O260   1.979       .  S
Fe68         O78   1.922       .  S
Fe69         O74   2.112       .  S
Fe69         O81   2.139       .  S
Fe69         O70   1.992       .  S
Fe69        O263   2.014   1_554  S
Fe69         O78   1.961       .  S
O70          C77   1.255       .  A
O71        Fe244   2.139       .  S
O71          C85   1.291       .  A
O72          C77   1.292       .  A
O73          C76   1.270       .  A
O74          C86   1.270       .  A
O75          C88   1.258   1_556  A
C76          O81   1.282       .  A
O79          C82   1.277       .  A
O80          C82   1.264       .  A
C82         C764   1.498   1_455  S
O83          C88   1.303       .  A
O84        Fe244   1.979       .  S
O84         C262   1.235       .  A
C85          O87   1.268       .  A
C86         O260   1.235       .  A
C86         C921   1.451   1_454  S
O87        Fe245   2.014       .  S
C88         C324   1.490   1_554  S
Fe89        O105   2.182       .  S
Fe89         O95   2.036       .  S
Fe89        O102   2.071       .  S
Fe89         O94   2.154       .  S
Fe89        O100   1.899       .  S
Fe90         O97   2.009   1_554  S
Fe90        O101   2.110       .  S
Fe90        O269   2.139   1_554  S
Fe90        O282   1.979       .  S
Fe90        O100   1.922       .  S
Fe91        O103   2.139       .  S
Fe91         O92   1.991       .  S
Fe91        O285   2.014   1_554  S
Fe91        O448   2.112       .  S
Fe91        O100   1.961       .  S
O92          C99   1.255       .  A
O93        Fe266   2.139       .  S
O93         C107   1.291       .  A
O94          C99   1.292       .  A
O95          C98   1.270       .  A
O96        Fe443   2.112   1_545  S
O96         C108   1.270   1_545  A
O97         C110   1.258   1_556  A
C98         O103   1.282       .  A
C98         C824   1.484       .  S
C99         C526   1.458       .  S
O101        C104   1.277       .  A
O102        C104   1.264       .  A
C104        C126   1.498       .  S
O105        C110   1.303       .  A
O106       Fe266   1.979       .  S
O106        C636   1.235       .  A
C107        O109   1.268       .  A
C107        C516   1.458       .  S
C108        O634   1.235       .  A
C108        C679   1.451   1_554  S
O109       Fe267   2.014       .  S
C110        C214   1.490   1_554  S
Fe111       O127   2.182       .  S
Fe111       O117   2.036       .  S
Fe111       O124   2.071       .  S
Fe111       O116   2.154       .  S
Fe111       O122   1.899       .  S
Fe112       O115   2.139       .  S
Fe112       O119   2.009       .  S
Fe112       O123   2.110       .  S
Fe112       O128   1.979       .  S
Fe112       O122   1.922       .  S
Fe113       O131   2.014       .  S
Fe113       O125   2.139       .  S
Fe113       O114   1.991       .  S
Fe113       O470   2.112       .  S
Fe113       O122   1.961       .  S
O114        C121   1.255       .  A
O115        C129   1.291       .  A
O116        C121   1.292       .  A
O117        C120   1.270       .  A
O118       Fe465   2.112   1_545  S
O118        C130   1.270   1_545  A
O119        C132   1.258       .  A
C120        O125   1.282       .  A
C120        C802   1.484   1_455  S
C121        C504   1.458       .  S
O123        C126   1.277       .  A
O124        C126   1.264       .  A
O127        C132   1.303       .  A
O128        C482   1.235       .  A
C129        O131   1.268       .  A
C129        C494   1.458       .  S
C130        O480   1.235       .  A
C130        C525   1.451       .  S
Fe133       O149   2.071       .  S
Fe133       O139   2.154       .  S
Fe133       O146   2.182       .  S
Fe133       O138   2.036       .  S
Fe133       O144   1.899       .  S
Fe134       O137   1.979       .  S
Fe134       O141   2.110       .  S
Fe134       O321   2.009       .  S
Fe134       O326   2.139       .  S
Fe134       O144   1.922       .  S
Fe135       O136   2.139   1_565  S
Fe135       O505   2.112       .  S
Fe135       O316   2.014   1_565  S
Fe135       O499   1.991       .  S
Fe135       O144   1.961   1_565  S
O136        C143   1.282       .  A
O137        C503   1.235   1_545  A
O138        C143   1.270       .  A
O139        C142   1.292       .  A
O140       Fe311   2.014   1_544  S
O140        C152   1.268       .  A
O141        C154   1.277       .  A
C142        O499   1.255   1_545  A
C142        C481   1.458   1_545  S
C143        C869   1.484   1_455  S
O145       Fe310   2.009   1_554  S
O145        C324   1.258   1_554  A
O146        C148   1.303       .  A
O147       Fe487   1.991       .  S
O147        C494   1.255       .  A
C148        O321   1.258       .  A
C148        C264   1.490       .  S
O149        C154   1.264       .  A
O150       Fe310   2.139   1_554  S
O150        C152   1.290       .  A
C151        O153   1.270       .  A
C151        O489   1.235       .  A
C151        C636   1.451       .  S
C152        C473   1.458   1_545  S
O153       Fe487   2.112       .  S
C154        C176   1.498       .  S
Fe155       O171   2.071       .  S
Fe155       O161   2.154       .  S
Fe155       O168   2.182       .  S
Fe155       O160   2.036       .  S
Fe155       O166   1.899       .  S
Fe156       O159   1.979       .  S
Fe156       O163   2.110       .  S
Fe156       O167   2.009       .  S
Fe156       O172   2.139       .  S
Fe156       O166   1.922       .  S
Fe157       O162   2.014   1_565  S
Fe157       O158   2.139   1_565  S
Fe157       O527   2.112       .  S
Fe157       O521   1.991       .  S
Fe157       O166   1.961   1_565  S
O158        C165   1.282       .  A
O159        C525   1.235   1_545  A
O160        C165   1.270       .  A
O161        C164   1.292       .  A
O162        C174   1.268       .  A
O163        C176   1.277       .  A
C164        O521   1.255   1_545  A
C164        C459   1.458   1_545  S
C165        C847   1.484       .  S
O167        C170   1.258       .  A
O168        C170   1.303       .  A
O169       Fe509   1.991       .  S
O169        C516   1.255       .  A
O171        C176   1.264       .  A
O172        C174   1.290       .  A
C173        O175   1.270       .  A
C173        O511   1.235       .  A
C173        C482   1.451       .  S
C174        C451   1.458   1_545  S
O175       Fe509   2.112       .  S
Fe177       O193   2.071       .  S
Fe177       O183   2.154       .  S
Fe177       O190   2.182       .  S
Fe177       O182   2.036       .  S
Fe177       O188   1.899       .  S
Fe178       O181   1.979       .  S
Fe178       O185   2.110       .  S
Fe178       O189   2.009       .  S
Fe178       O194   2.139       .  S
Fe178       O188   1.922       .  S
Fe179       O197   2.112       .  S
Fe179       O184   2.014       .  S
Fe179       O191   1.991       .  S
Fe179       O180   2.139       .  S
Fe179       O188   1.961       .  S
O180        C187   1.282       .  A
O181        C195   1.235       .  A
O182        C187   1.270       .  A
O183        C186   1.292       .  A
O184        C196   1.268       .  A
O185        C198   1.277       .  A
C186        O191   1.255       .  A
C186        C261   1.459       .  S
C187        C209   1.484       .  S
O189        C192   1.258       .  A
O190        C192   1.303       .  A
C192        C308   1.490       .  S
O193        C198   1.264       .  A
O194        C196   1.290       .  A
C195        O197   1.270       .  A
C195        C944   1.451   1_455  S
C196        C253   1.459       .  S
C198        C924   1.498   1_455  S
Fe199       O215   2.071       .  S
Fe199       O205   2.154       .  S
Fe199       O212   2.182       .  S
Fe199       O204   2.036       .  S
Fe199       O210   1.899       .  S
Fe200       O203   1.979       .  S
Fe200       O207   2.110       .  S
Fe200       O210   1.922       .  S
Fe201       O219   2.112       .  S
Fe201       O213   1.991       .  S
Fe201       O202   2.139       .  S
Fe201       O210   1.961       .  S
O202        C209   1.282       .  A
O203        C217   1.235       .  A
O204        C209   1.270       .  A
O205        C208   1.292       .  A
O206        C218   1.268       .  A
O207        C220   1.277       .  A
C208        O213   1.255       .  A
C208        C239   1.459       .  S
O212        C214   1.303       .  A
O215        C220   1.264       .  A
O216        C218   1.290       .  A
C217        O219   1.270       .  A
C217        C790   1.451   1_556  S
C218        C231   1.459       .  S
C220        C902   1.498       .  S
Fe221       O237   2.182       .  S
Fe221       O227   2.036       .  S
Fe221       O234   2.071       .  S
Fe221       O226   2.154       .  S
Fe221       O232   1.899       .  S
Fe222       O225   2.139       .  S
Fe222       O229   2.009       .  S
Fe222       O233   2.110       .  S
Fe222       O238   1.979       .  S
Fe222       O232   1.922       .  S
Fe223       O241   2.014       .  S
Fe223       O228   2.112       .  S
Fe223       O235   2.139       .  S
Fe223       O224   1.991       .  S
Fe223       O232   1.961       .  S
O224        C231   1.255       .  A
O225        C239   1.291       .  A
O226        C231   1.292       .  A
O227        C230   1.270       .  A
O228        C240   1.270       .  A
O229        C242   1.258       .  A
C230        O235   1.282       .  A
C230        C252   1.484       .  S
O233        C236   1.277       .  A
O234        C236   1.264       .  A
C236        C962   1.498       .  S
O237        C242   1.303       .  A
O238        C240   1.235       .  A
C239        O241   1.268       .  A
C240        C899   1.451       .  S
C242        C346   1.490       .  S
Fe243       O259   2.182       .  S
Fe243       O249   2.036       .  S
Fe243       O256   2.071       .  S
Fe243       O248   2.154       .  S
Fe243       O254   1.899       .  S
Fe244       O251   2.009       .  S
Fe244       O255   2.110       .  S
Fe244       O254   1.922       .  S
Fe245       O250   2.112       .  S
Fe245       O257   2.139       .  S
Fe245       O246   1.992       .  S
Fe245       O254   1.961       .  S
O246        C253   1.255       .  A
O247        C261   1.291       .  A
O248        C253   1.292       .  A
O249        C252   1.270       .  A
O250        C262   1.270       .  A
O251        C264   1.258       .  A
C252        O257   1.282       .  A
O255        C258   1.277       .  A
O256        C258   1.264       .  A
C258        C940   1.498   1_455  S
O259        C264   1.303       .  A
C261        O263   1.268       .  A
C262        C745   1.451   1_455  S
Fe265       O281   2.182       .  S
Fe265       O271   2.036       .  S
Fe265       O278   2.071       .  S
Fe265       O270   2.154       .  S
Fe265       O276   1.899       .  S
Fe266       O273   2.009       .  S
Fe266       O277   2.110       .  S
Fe266       O276   1.922       .  S
Fe267       O624   2.112       .  S
Fe267       O279   2.139       .  S
Fe267       O268   1.991       .  S
Fe267       O276   1.961       .  S
O268        C275   1.255       .  A
O269        C283   1.291       .  A
O270        C275   1.292       .  A
O271        C274   1.270       .  A
O272       Fe619   2.112   1_545  S
O272        C284   1.270   1_545  A
O273        C286   1.258       .  A
C274        O279   1.282       .  A
C274       C1000   1.484       .  S
C275        C702   1.458       .  S
O277        C280   1.277       .  A
O278        C280   1.264       .  A
C280        C302   1.498       .  S
O281        C286   1.303       .  A
O282        C460   1.235       .  A
C283        O285   1.268       .  A
C283        C692   1.458       .  S
C284        O458   1.235       .  A
C284        C503   1.451       .  S
Fe287       O303   2.182       .  S
Fe287       O293   2.036       .  S
Fe287       O300   2.071       .  S
Fe287       O292   2.154       .  S
Fe287       O298   1.899       .  S
Fe288       O291   2.139       .  S
Fe288       O295   2.009       .  S
Fe288       O299   2.110       .  S
Fe288       O304   1.979       .  S
Fe288       O298   1.922       .  S
Fe289       O307   2.014       .  S
Fe289       O646   2.112       .  S
Fe289       O301   2.139       .  S
Fe289       O290   1.991       .  S
Fe289       O298   1.961       .  S
O290        C297   1.255       .  A
O291        C305   1.291       .  A
O292        C297   1.292       .  A
O293        C296   1.270       .  A
O294       Fe641   2.112   1_545  S
O294        C306   1.270   1_545  A
O295        C308   1.258       .  A
C296        O301   1.282       .  A
C296        C978   1.484   1_455  S
C297        C680   1.458       .  S
O299        C302   1.277       .  A
O300        C302   1.264       .  A
O303        C308   1.303       .  A
O304        C658   1.235       .  A
C305        O307   1.268       .  A
C305        C670   1.458       .  S
C306        O656   1.235       .  A
C306        C701   1.451       .  S
Fe309       O325   2.071       .  S
Fe309       O315   2.154       .  S
Fe309       O322   2.182       .  S
Fe309       O314   2.036       .  S
Fe309       O320   1.899       .  S
Fe310       O313   1.979       .  S
Fe310       O317   2.110       .  S
Fe310       O320   1.922       .  S
Fe311       O681   2.112       .  S
Fe311       O675   1.991       .  S
Fe311       O312   2.139   1_565  S
Fe311       O320   1.961   1_565  S
O312        C319   1.282       .  A
O313        C679   1.235   1_545  A
O314        C319   1.270       .  A
O315        C318   1.292       .  A
O316        C328   1.268       .  A
O317        C330   1.277       .  A
C318        O675   1.255   1_545  A
C318        C657   1.458   1_545  S
C319       C1045   1.484   1_455  S
O322        C324   1.303       .  A
O323       Fe663   1.991       .  S
O323        C670   1.255       .  A
O325        C330   1.264       .  A
O326        C328   1.290       .  A
C327        O665   1.235       .  A
C327        O329   1.270       .  A
C327        C460   1.451   1_556  S
C328        C649   1.458   1_545  S
O329       Fe663   2.112       .  S
C330        C352   1.498       .  S
Fe331       O347   2.071       .  S
Fe331       O337   2.154       .  S
Fe331       O344   2.182       .  S
Fe331       O336   2.036       .  S
Fe331       O342   1.899       .  S
Fe332       O335   1.979       .  S
Fe332       O339   2.110       .  S
Fe332       O343   2.009       .  S
Fe332       O348   2.139       .  S
Fe332       O342   1.922       .  S
Fe333       O703   2.112       .  S
Fe333       O338   2.014   1_565  S
Fe333       O697   1.991       .  S
Fe333       O334   2.139   1_565  S
Fe333       O342   1.961   1_565  S
O334        C341   1.282       .  A
O335        C701   1.235   1_545  A
O336        C341   1.270       .  A
O337        C340   1.292       .  A
O338        C350   1.268       .  A
O339        C352   1.277       .  A
C340        O697   1.255   1_545  A
C340        C635   1.458   1_545  S
C341       C1023   1.484       .  S
O343        C346   1.258       .  A
O344        C346   1.303       .  A
O345       Fe685   1.991       .  S
O345        C692   1.255       .  A
O347        C352   1.264       .  A
O348        C350   1.290       .  A
C349        O687   1.235       .  A
C349        O351   1.270       .  A
C349        C658   1.451       .  S
C350        C627   1.458   1_545  S
O351       Fe685   2.112       .  S
Fe353       O369   2.071       .  S
Fe353       O359   2.154       .  S
Fe353       O366   2.182       .  S
Fe353       O358   2.036       .  S
Fe353       O364   1.899       .  S
Fe354       O357   1.979       .  S
Fe354       O361   2.110       .  S
Fe354       O365   2.009       .  S
Fe354       O370   2.139       .  S
Fe354       O364   1.922       .  S
Fe355       O373   2.112       .  S
Fe355       O360   2.014       .  S
Fe355       O367   1.991       .  S
Fe355       O356   2.139       .  S
Fe355       O364   1.961       .  S
O356        C363   1.282       .  A
O357        C371   1.235       .  A
O358        C363   1.270       .  A
O359        C362   1.292       .  A
O360        C372   1.268       .  A
O361        C374   1.277       .  A
C362        O367   1.255       .  A
C362        C437   1.459       .  S
C363        C385   1.484       .  S
O365        C368   1.258       .  A
O366        C368   1.303       .  A
C368        C484   1.490       .  S
O369        C374   1.264       .  A
O370        C372   1.290       .  A
C371        O373   1.270       .  A
C371       C1120   1.451   1_455  S
C372        C429   1.459       .  S
C374       C1100   1.498   1_455  S
Fe375       O391   2.071       .  S
Fe375       O381   2.154       .  S
Fe375       O388   2.182       .  S
Fe375       O380   2.036       .  S
Fe375       O386   1.899       .  S
Fe376       O379   1.979       .  S
Fe376       O383   2.110       .  S
Fe376       O563   2.009       .  S
Fe376       O568   2.139       .  S
Fe376       O386   1.922       .  S
Fe377       O395   2.112       .  S
Fe377       O558   2.014       .  S
Fe377       O389   1.991       .  S
Fe377       O378   2.139       .  S
Fe377       O386   1.961       .  S
O378        C385   1.282       .  A
O379        C393   1.235       .  A
O380        C385   1.270       .  A
O381        C384   1.292       .  A
O382       Fe553   2.014   1_554  S
O382        C394   1.268       .  A
O383        C396   1.277       .  A
C384        O389   1.255       .  A
C384        C415   1.459       .  S
O387       Fe552   2.009   1_554  S
O387        C566   1.258   1_554  A
O388        C390   1.303       .  A
C390        O563   1.258       .  A
C390        C638   1.490       .  S
O391        C396   1.264       .  A
O392       Fe552   2.139   1_554  S
O392        C394   1.290       .  A
C393        O395   1.270       .  A
C393       C1318   1.451       .  S
C394        C407   1.459       .  S
C396       C1078   1.498       .  S
Fe397       O413   2.182       .  S
Fe397       O403   2.036       .  S
Fe397       O410   2.071       .  S
Fe397       O402   2.154       .  S
Fe397       O408   1.899       .  S
Fe398       O401   2.139       .  S
Fe398       O405   2.009       .  S
Fe398       O409   2.110       .  S
Fe398       O414   1.979       .  S
Fe398       O408   1.922       .  S
Fe399       O417   2.014       .  S
Fe399       O404   2.112       .  S
Fe399       O411   2.139       .  S
Fe399       O400   1.991       .  S
Fe399       O408   1.961       .  S
O400        C407   1.255       .  A
O401        C415   1.291       .  A
O402        C407   1.292       .  A
O403        C406   1.270       .  A
O404        C416   1.270       .  A
O405        C418   1.258       .  A
C406        O411   1.282       .  A
C406        C428   1.484       .  S
O409        C412   1.277       .  A
O410        C412   1.264       .  A
C412       C1138   1.498       .  S
O413        C418   1.303       .  A
O414        C416   1.235       .  A
C415        O417   1.268       .  A
C416       C1075   1.451       .  S
C418        C522   1.490       .  S
Fe419       O435   2.182       .  S
Fe419       O425   2.036       .  S
Fe419       O432   2.071       .  S
Fe419       O424   2.154       .  S
Fe419       O430   1.899       .  S
Fe420       O599   2.139   1_554  S
Fe420       O427   2.009   1_554  S
Fe420       O431   2.110       .  S
Fe420       O612   1.979       .  S
Fe420       O430   1.922       .  S
Fe421       O615   2.014   1_554  S
Fe421       O426   2.112       .  S
Fe421       O433   2.139       .  S
Fe421       O422   1.992       .  S
Fe421       O430   1.961       .  S
O422        C429   1.255       .  A
O423       Fe596   2.139       .  S
O423        C437   1.291       .  A
O424        C429   1.292       .  A
O425        C428   1.270       .  A
O426        C438   1.270       .  A
O427        C440   1.258   1_556  A
C428        O433   1.282       .  A
O431        C434   1.277       .  A
O432        C434   1.264       .  A
C434       C1116   1.498   1_455  S
O435        C440   1.303       .  A
O436       Fe596   1.979       .  S
O436        C614   1.235       .  A
C437        O439   1.268       .  A
C438        O612   1.235       .  A
C438       C1273   1.451   1_454  S
O439       Fe597   2.014       .  S
C440        C676   1.490   1_554  S
Fe441       O457   2.182       .  S
Fe441       O447   2.036       .  S
Fe441       O454   2.071       .  S
Fe441       O446   2.154       .  S
Fe441       O452   1.899       .  S
Fe442       O621   2.139   1_554  S
Fe442       O449   2.009   1_554  S
Fe442       O453   2.110       .  S
Fe442       O634   1.979       .  S
Fe442       O452   1.922       .  S
Fe443       O637   2.014   1_554  S
Fe443       O455   2.139       .  S
Fe443       O444   1.991   1_565  S
Fe443       O452   1.961       .  S
O444        C451   1.255   1_545  A
O445       Fe618   2.139       .  S
O445        C459   1.291       .  A
O446        C451   1.292       .  A
O447        C450   1.270       .  A
O448        C460   1.270       .  A
O449        C462   1.258   1_556  A
C450        O455   1.282       .  A
C450       C1176   1.484       .  S
O453        C456   1.277       .  A
O454        C456   1.264       .  A
C456        C478   1.498       .  S
O457        C462   1.303       .  A
O458       Fe618   1.979       .  S
C459        O461   1.268       .  A
O461       Fe619   2.014       .  S
C462        C566   1.490   1_554  S
Fe463       O479   2.182       .  S
Fe463       O469   2.036       .  S
Fe463       O476   2.071       .  S
Fe463       O468   2.154       .  S
Fe463       O474   1.899       .  S
Fe464       O467   2.139       .  S
Fe464       O471   2.009       .  S
Fe464       O475   2.110       .  S
Fe464       O480   1.979       .  S
Fe464       O474   1.922       .  S
Fe465       O483   2.014       .  S
Fe465       O477   2.139       .  S
Fe465       O466   1.991   1_565  S
Fe465       O474   1.961       .  S
O466        C473   1.255   1_545  A
O467        C481   1.291       .  A
O468        C473   1.292       .  A
O469        C472   1.270       .  A
O470        C482   1.270       .  A
O471        C484   1.258       .  A
C472        O477   1.282       .  A
C472       C1154   1.484   1_455  S
O475        C478   1.277       .  A
O476        C478   1.264       .  A
O479        C484   1.303       .  A
C481        O483   1.268       .  A
Fe485       O501   2.071       .  S
Fe485       O491   2.154       .  S
Fe485       O498   2.182       .  S
Fe485       O490   2.036       .  S
Fe485       O496   1.899       .  S
Fe486       O489   1.979       .  S
Fe486       O493   2.110       .  S
Fe486       O673   2.009       .  S
Fe486       O678   2.139       .  S
Fe486       O496   1.922       .  S
Fe487       O668   2.014       .  S
Fe487       O488   2.139       .  S
Fe487       O496   1.961       .  S
O488        C495   1.282       .  A
O490        C495   1.270       .  A
O491        C494   1.292       .  A
O492       Fe663   2.014   1_554  S
O492        C504   1.268       .  A
O493        C506   1.277       .  A
C495       C1221   1.484   1_455  S
O497       Fe662   2.009   1_554  S
O497        C676   1.258   1_554  A
O498        C500   1.303       .  A
C500        O673   1.258       .  A
C500        C616   1.490       .  S
O501        C506   1.264       .  A
O502       Fe662   2.139   1_554  S
O502        C504   1.290       .  A
C503        O505   1.270       .  A
C506        C528   1.498       .  S
Fe507       O523   2.071       .  S
Fe507       O513   2.154       .  S
Fe507       O520   2.182       .  S
Fe507       O512   2.036       .  S
Fe507       O518   1.899       .  S
Fe508       O511   1.979       .  S
Fe508       O515   2.110       .  S
Fe508       O519   2.009       .  S
Fe508       O524   2.139       .  S
Fe508       O518   1.922       .  S
Fe509       O514   2.014       .  S
Fe509       O510   2.139       .  S
Fe509       O518   1.961       .  S
O510        C517   1.282       .  A
O512        C517   1.270       .  A
O513        C516   1.292       .  A
O514        C526   1.268       .  A
O515        C528   1.277       .  A
C517       C1199   1.484       .  S
O519        C522   1.258       .  A
O520        C522   1.303       .  A
O523        C528   1.264       .  A
O524        C526   1.290       .  A
C525        O527   1.270       .  A
Fe529       O545   2.071       .  S
Fe529       O535   2.154       .  S
Fe529       O542   2.182       .  S
Fe529       O534   2.036       .  S
Fe529       O540   1.899       .  S
Fe530       O533   1.979       .  S
Fe530       O537   2.110       .  S
Fe530       O541   2.009       .  S
Fe530       O546   2.139       .  S
Fe530       O540   1.922       .  S
Fe531       O549   2.112       .  S
Fe531       O536   2.014       .  S
Fe531       O543   1.991       .  S
Fe531       O532   2.139       .  S
Fe531       O540   1.961       .  S
O532        C539   1.282       .  A
O533        C547   1.235       .  A
O534        C539   1.270       .  A
O535        C538   1.292       .  A
O536        C548   1.268       .  A
O537        C550   1.277       .  A
C538        O543   1.255       .  A
C538        C613   1.459       .  S
C539        C561   1.484       .  S
O541        C544   1.258       .  A
O542        C544   1.303       .  A
C544        C660   1.490       .  S
O545        C550   1.264       .  A
O546        C548   1.290       .  A
C547        O549   1.270       .  A
C547       C1296   1.451   1_455  S
C548        C605   1.459       .  S
C550       C1276   1.498   1_455  S
Fe551       O567   2.071       .  S
Fe551       O557   2.154       .  S
Fe551       O564   2.182       .  S
Fe551       O556   2.036       .  S
Fe551       O562   1.899       .  S
Fe552       O555   1.979       .  S
Fe552       O559   2.110       .  S
Fe552       O562   1.922       .  S
Fe553       O571   2.112       .  S
Fe553       O565   1.991       .  S
Fe553       O554   2.139       .  S
Fe553       O562   1.961       .  S
O554        C561   1.282       .  A
O555        C569   1.235       .  A
O556        C561   1.270       .  A
O557        C560   1.292       .  A
O558        C570   1.268       .  A
O559        C572   1.277       .  A
C560        O565   1.255       .  A
C560        C591   1.459       .  S
O564        C566   1.303       .  A
O567        C572   1.264       .  A
O568        C570   1.290       .  A
C569        O571   1.270       .  A
C569       C1142   1.451   1_556  S
C570        C583   1.459       .  S
C572       C1254   1.498       .  S
Fe573       O589   2.182       .  S
Fe573       O579   2.036       .  S
Fe573       O586   2.071       .  S
Fe573       O578   2.154       .  S
Fe573       O584   1.899       .  S
Fe574       O577   2.139       .  S
Fe574       O581   2.009       .  S
Fe574       O585   2.110       .  S
Fe574       O590   1.979       .  S
Fe574       O584   1.922       .  S
Fe575       O593   2.014       .  S
Fe575       O580   2.112       .  S
Fe575       O587   2.139       .  S
Fe575       O576   1.991       .  S
Fe575       O584   1.961       .  S
O576        C583   1.255       .  A
O577        C591   1.291       .  A
O578        C583   1.292       .  A
O579        C582   1.270       .  A
O580        C592   1.270       .  A
O581        C594   1.258       .  A
C582        O587   1.282       .  A
C582        C604   1.484       .  S
O585        C588   1.277       .  A
O586        C588   1.264       .  A
C588       C1314   1.498       .  S
O589        C594   1.303       .  A
O590        C592   1.235       .  A
C591        O593   1.268       .  A
C592       C1251   1.451       .  S
C594        C698   1.490       .  S
Fe595       O611   2.182       .  S
Fe595       O601   2.036       .  S
Fe595       O608   2.071       .  S
Fe595       O600   2.154       .  S
Fe595       O606   1.899       .  S
Fe596       O603   2.009       .  S
Fe596       O607   2.110       .  S
Fe596       O606   1.922       .  S
Fe597       O602   2.112       .  S
Fe597       O609   2.139       .  S
Fe597       O598   1.992       .  S
Fe597       O606   1.961       .  S
O598        C605   1.255       .  A
O599        C613   1.291       .  A
O600        C605   1.292       .  A
O601        C604   1.270       .  A
O602        C614   1.270       .  A
O603        C616   1.258       .  A
C604        O609   1.282       .  A
O607        C610   1.277       .  A
O608        C610   1.264       .  A
C610       C1292   1.498   1_455  S
O611        C616   1.303       .  A
C613        O615   1.268       .  A
C614       C1097   1.451   1_455  S
Fe617       O633   2.182       .  S
Fe617       O623   2.036       .  S
Fe617       O630   2.071       .  S
Fe617       O622   2.154       .  S
Fe617       O628   1.899       .  S
Fe618       O625   2.009       .  S
Fe618       O629   2.110       .  S
Fe618       O628   1.922       .  S
Fe619       O631   2.139       .  S
Fe619       O620   1.991   1_565  S
Fe619       O628   1.961       .  S
O620        C627   1.255   1_545  A
O621        C635   1.291       .  A
O622        C627   1.292       .  A
O623        C626   1.270       .  A
O624        C636   1.270       .  A
O625        C638   1.258       .  A
C626        O631   1.282       .  A
C626       C1352   1.484       .  S
O629        C632   1.277       .  A
O630        C632   1.264       .  A
C632        C654   1.498       .  S
O633        C638   1.303       .  A
C635        O637   1.268       .  A
Fe639       O655   2.182       .  S
Fe639       O645   2.036       .  S
Fe639       O652   2.071       .  S
Fe639       O644   2.154       .  S
Fe639       O650   1.899       .  S
Fe640       O643   2.139       .  S
Fe640       O647   2.009       .  S
Fe640       O651   2.110       .  S
Fe640       O656   1.979       .  S
Fe640       O650   1.922       .  S
Fe641       O659   2.014       .  S
Fe641       O653   2.139       .  S
Fe641       O642   1.991   1_565  S
Fe641       O650   1.961       .  S
O642        C649   1.255   1_545  A
O643        C657   1.291       .  A
O644        C649   1.292       .  A
O645        C648   1.270       .  A
O646        C658   1.270       .  A
O647        C660   1.258       .  A
C648        O653   1.282       .  A
C648       C1330   1.484   1_455  S
O651        C654   1.277       .  A
O652        C654   1.264       .  A
O655        C660   1.303       .  A
C657        O659   1.268       .  A
Fe661       O677   2.071       .  S
Fe661       O667   2.154       .  S
Fe661       O674   2.182       .  S
Fe661       O666   2.036       .  S
Fe661       O672   1.899       .  S
Fe662       O665   1.979       .  S
Fe662       O669   2.110       .  S
Fe662       O672   1.922       .  S
Fe663       O664   2.139       .  S
Fe663       O672   1.961       .  S
O664        C671   1.282       .  A
O666        C671   1.270       .  A
O667        C670   1.292       .  A
O668        C680   1.268       .  A
O669        C682   1.277       .  A
C671       C1397   1.484   1_455  S
O674        C676   1.303       .  A
O677        C682   1.264       .  A
O678        C680   1.290       .  A
C679        O681   1.270       .  A
C682        C704   1.498       .  S
Fe683       O699   2.071       .  S
Fe683       O689   2.154       .  S
Fe683       O696   2.182       .  S
Fe683       O688   2.036       .  S
Fe683       O694   1.899       .  S
Fe684       O687   1.979       .  S
Fe684       O691   2.110       .  S
Fe684       O695   2.009       .  S
Fe684       O700   2.139       .  S
Fe684       O694   1.922       .  S
Fe685       O690   2.014       .  S
Fe685       O686   2.139       .  S
Fe685       O694   1.961       .  S
O686        C693   1.282       .  A
O688        C693   1.270       .  A
O689        C692   1.292       .  A
O690        C702   1.268       .  A
O691        C704   1.277       .  A
C693       C1375   1.484       .  S
O695        C698   1.258       .  A
O696        C698   1.303       .  A
O699        C704   1.264       .  A
O700        C702   1.290       .  A
C701        O703   1.270       .  A
Fe705       O721   2.071       .  S
Fe705       O711   2.154       .  S
Fe705       O718   2.182       .  S
Fe705       O710   2.036       .  S
Fe705       O716   1.899       .  S
Fe706       O709   1.979       .  S
Fe706       O713   2.110       .  S
Fe706       O717   2.009       .  S
Fe706       O722   2.139       .  S
Fe706       O716   1.922       .  S
Fe707       O725   2.112       .  S
Fe707       O712   2.014       .  S
Fe707       O719   1.991       .  S
Fe707       O708   2.139       .  S
Fe707       O716   1.961       .  S
O708        C715   1.282       .  A
O709        C723   1.235       .  A
O710        C715   1.270       .  A
O711        C714   1.292       .  A
O712        C724   1.268       .  A
O713        C726   1.277       .  A
C714        O719   1.255       .  A
C714        C789   1.459       .  S
C715        C737   1.484       .  S
O717        C720   1.258       .  A
O718        C720   1.303       .  A
C720        C836   1.490       .  S
O721        C726   1.264       .  A
O722        C724   1.290       .  A
C723        O725   1.270       .  A
C724        C781   1.459       .  S
Fe727       O743   2.071       .  S
Fe727       O733   2.154       .  S
Fe727       O740   2.182       .  S
Fe727       O732   2.036       .  S
Fe727       O738   1.899       .  S
Fe728       O731   1.979       .  S
Fe728       O735   2.110       .  S
Fe728       O915   2.009       .  S
Fe728       O920   2.139       .  S
Fe728       O738   1.922       .  S
Fe729       O747   2.112       .  S
Fe729       O910   2.014       .  S
Fe729       O741   1.991       .  S
Fe729       O730   2.139       .  S
Fe729       O738   1.961       .  S
O730        C737   1.282       .  A
O731        C745   1.235       .  A
O732        C737   1.270       .  A
O733        C736   1.292       .  A
O734       Fe905   2.014   1_554  S
O734        C746   1.268       .  A
O735        C748   1.277       .  A
C736        O741   1.255       .  A
C736        C767   1.459       .  S
O739       Fe904   2.009   1_554  S
O739        C918   1.258   1_554  A
O740        C742   1.303       .  A
C742        O915   1.258       .  A
C742        C990   1.490       .  S
O743        C748   1.264       .  A
O744       Fe904   2.139   1_554  S
O744        C746   1.290       .  A
C745        O747   1.270       .  A
C746        C759   1.459       .  S
Fe749       O765   2.182       .  S
Fe749       O755   2.036       .  S
Fe749       O762   2.071       .  S
Fe749       O754   2.154       .  S
Fe749       O760   1.899       .  S
Fe750       O753   2.139       .  S
Fe750       O757   2.009       .  S
Fe750       O761   2.110       .  S
Fe750       O766   1.979       .  S
Fe750       O760   1.922       .  S
Fe751       O769   2.014       .  S
Fe751       O756   2.112       .  S
Fe751       O763   2.139       .  S
Fe751       O752   1.991       .  S
Fe751       O760   1.961       .  S
O752        C759   1.255       .  A
O753        C767   1.291       .  A
O754        C759   1.292       .  A
O755        C758   1.270       .  A
O756        C768   1.270       .  A
O757        C770   1.258       .  A
C758        O763   1.282       .  A
C758        C780   1.484       .  S
O761        C764   1.277       .  A
O762        C764   1.264       .  A
O765        C770   1.303       .  A
O766        C768   1.235       .  A
C767        O769   1.268       .  A
C770        C874   1.490       .  S
Fe771       O787   2.182       .  S
Fe771       O777   2.036       .  S
Fe771       O784   2.071       .  S
Fe771       O776   2.154       .  S
Fe771       O782   1.899       .  S
Fe772       O951   2.139   1_554  S
Fe772       O779   2.009   1_554  S
Fe772       O783   2.110       .  S
Fe772       O964   1.979       .  S
Fe772       O782   1.922       .  S
Fe773       O967   2.014   1_554  S
Fe773       O778   2.112       .  S
Fe773       O785   2.139       .  S
Fe773       O774   1.992       .  S
Fe773       O782   1.961       .  S
O774        C781   1.255       .  A
O775       Fe948   2.139       .  S
O775        C789   1.291       .  A
O776        C781   1.292       .  A
O777        C780   1.270       .  A
O778        C790   1.270       .  A
O779        C792   1.258   1_556  A
C780        O785   1.282       .  A
O783        C786   1.277       .  A
O784        C786   1.264       .  A
O787        C792   1.303       .  A
O788       Fe948   1.979       .  S
O788        C966   1.235       .  A
C789        O791   1.268       .  A
C790        O964   1.235       .  A
O791       Fe949   2.014       .  S
C792       C1028   1.490   1_554  S
Fe793       O809   2.182       .  S
Fe793       O799   2.036       .  S
Fe793       O806   2.071       .  S
Fe793       O798   2.154       .  S
Fe793       O804   1.899       .  S
Fe794       O973   2.139   1_554  S
Fe794       O801   2.009   1_554  S
Fe794       O805   2.110       .  S
Fe794       O986   1.979       .  S
Fe794       O804   1.922       .  S
Fe795       O989   2.014   1_554  S
Fe795      O1152   2.112       .  S
Fe795       O807   2.139       .  S
Fe795       O796   1.991       .  S
Fe795       O804   1.961       .  S
O796        C803   1.255       .  A
O797       Fe970   2.139       .  S
O797        C811   1.291       .  A
O798        C803   1.292       .  A
O799        C802   1.270       .  A
O800      Fe1147   2.112   1_545  S
O800        C812   1.270   1_545  A
O801        C814   1.258   1_556  A
C802        O807   1.282       .  A
C803       C1230   1.458       .  S
O805        C808   1.277       .  A
O806        C808   1.264       .  A
C808        C830   1.498       .  S
O809        C814   1.303       .  A
O810       Fe970   1.979       .  S
O810       C1340   1.235       .  A
C811        O813   1.268       .  A
C811       C1220   1.458       .  S
C812       O1338   1.235       .  A
C812       C1383   1.451   1_554  S
O813       Fe971   2.014       .  S
C814        C918   1.490   1_554  S
Fe815       O831   2.182       .  S
Fe815       O821   2.036       .  S
Fe815       O828   2.071       .  S
Fe815       O820   2.154       .  S
Fe815       O826   1.899       .  S
Fe816       O819   2.139       .  S
Fe816       O823   2.009       .  S
Fe816       O827   2.110       .  S
Fe816       O832   1.979       .  S
Fe816       O826   1.922       .  S
Fe817       O835   2.014       .  S
Fe817      O1174   2.112       .  S
Fe817       O829   2.139       .  S
Fe817       O818   1.991       .  S
Fe817       O826   1.961       .  S
O818        C825   1.255       .  A
O819        C833   1.291       .  A
O820        C825   1.292       .  A
O821        C824   1.270       .  A
O822      Fe1169   2.112   1_545  S
O822        C834   1.270   1_545  A
O823        C836   1.258       .  A
C824        O829   1.282       .  A
C825       C1208   1.458       .  S
O827        C830   1.277       .  A
O828        C830   1.264       .  A
O831        C836   1.303       .  A
O832       C1186   1.235       .  A
C833        O835   1.268       .  A
C833       C1198   1.458       .  S
C834       O1184   1.235       .  A
C834       C1229   1.451       .  S
Fe837       O853   2.071       .  S
Fe837       O843   2.154       .  S
Fe837       O850   2.182       .  S
Fe837       O842   2.036       .  S
Fe837       O848   1.899       .  S
Fe838       O841   1.979       .  S
Fe838       O845   2.110       .  S
Fe838      O1025   2.009       .  S
Fe838      O1030   2.139       .  S
Fe838       O848   1.922       .  S
Fe839      O1209   2.112       .  S
Fe839      O1020   2.014   1_565  S
Fe839      O1203   1.991       .  S
Fe839       O840   2.139   1_565  S
Fe839       O848   1.961   1_565  S
O840        C847   1.282       .  A
O841       C1207   1.235   1_545  A
O842        C847   1.270       .  A
O843        C846   1.292       .  A
O844      Fe1015   2.014   1_544  S
O844        C856   1.268       .  A
O845        C858   1.277       .  A
C846       O1203   1.255   1_545  A
C846       C1185   1.458   1_545  S
O849      Fe1014   2.009   1_554  S
O849       C1028   1.258   1_554  A
O850        C852   1.303       .  A
O851      Fe1191   1.991       .  S
O851       C1198   1.255       .  A
C852       O1025   1.258       .  A
C852        C968   1.490       .  S
O853        C858   1.264       .  A
O854      Fe1014   2.139   1_554  S
O854        C856   1.290       .  A
C855       O1193   1.235       .  A
C855        O857   1.270       .  A
C855       C1340   1.451       .  S
C856       C1177   1.458   1_545  S
O857      Fe1191   2.112       .  S
C858        C880   1.498       .  S
Fe859       O875   2.071       .  S
Fe859       O865   2.154       .  S
Fe859       O872   2.182       .  S
Fe859       O864   2.036       .  S
Fe859       O870   1.899       .  S
Fe860       O863   1.979       .  S
Fe860       O867   2.110       .  S
Fe860       O871   2.009       .  S
Fe860       O876   2.139       .  S
Fe860       O870   1.922       .  S
Fe861      O1231   2.112       .  S
Fe861       O866   2.014   1_565  S
Fe861      O1225   1.991       .  S
Fe861       O862   2.139   1_565  S
Fe861       O870   1.961   1_565  S
O862        C869   1.282       .  A
O863       C1229   1.235   1_545  A
O864        C869   1.270       .  A
O865        C868   1.292       .  A
O866        C878   1.268       .  A
O867        C880   1.277       .  A
C868       O1225   1.255   1_545  A
C868       C1163   1.458   1_545  S
O871        C874   1.258       .  A
O872        C874   1.303       .  A
O873      Fe1213   1.991       .  S
O873       C1220   1.255       .  A
O875        C880   1.264       .  A
O876        C878   1.290       .  A
C877       O1215   1.235       .  A
C877        O879   1.270       .  A
C877       C1186   1.451       .  S
C878       C1155   1.458   1_545  S
O879      Fe1213   2.112       .  S
Fe881       O897   2.071       .  S
Fe881       O887   2.154       .  S
Fe881       O894   2.182       .  S
Fe881       O886   2.036       .  S
Fe881       O892   1.899       .  S
Fe882       O885   1.979       .  S
Fe882       O889   2.110       .  S
Fe882       O893   2.009       .  S
Fe882       O898   2.139       .  S
Fe882       O892   1.922       .  S
Fe883       O901   2.112       .  S
Fe883       O888   2.014       .  S
Fe883       O895   1.991       .  S
Fe883       O884   2.139       .  S
Fe883       O892   1.961       .  S
O884        C891   1.282       .  A
O885        C899   1.235       .  A
O886        C891   1.270       .  A
O887        C890   1.292       .  A
O888        C900   1.268       .  A
O889        C902   1.277       .  A
C890        O895   1.255       .  A
C890        C965   1.459       .  S
C891        C913   1.484       .  S
O893        C896   1.258       .  A
O894        C896   1.303       .  A
C896       C1012   1.490       .  S
O897        C902   1.264       .  A
O898        C900   1.290       .  A
C899        O901   1.270       .  A
C900        C957   1.459       .  S
Fe903       O919   2.071       .  S
Fe903       O909   2.154       .  S
Fe903       O916   2.182       .  S
Fe903       O908   2.036       .  S
Fe903       O914   1.899       .  S
Fe904       O907   1.979       .  S
Fe904       O911   2.110       .  S
Fe904       O914   1.922       .  S
Fe905       O923   2.112       .  S
Fe905       O917   1.991       .  S
Fe905       O906   2.139       .  S
Fe905       O914   1.961       .  S
O906        C913   1.282       .  A
O907        C921   1.235       .  A
O908        C913   1.270       .  A
O909        C912   1.292       .  A
O910        C922   1.268       .  A
O911        C924   1.277       .  A
C912        O917   1.255       .  A
C912        C943   1.459       .  S
O916        C918   1.303       .  A
O919        C924   1.264       .  A
O920        C922   1.290       .  A
C921        O923   1.270       .  A
C922        C935   1.459       .  S
Fe925       O941   2.182       .  S
Fe925       O931   2.036       .  S
Fe925       O938   2.071       .  S
Fe925       O930   2.154       .  S
Fe925       O936   1.899       .  S
Fe926       O929   2.139       .  S
Fe926       O933   2.009       .  S
Fe926       O937   2.110       .  S
Fe926       O942   1.979       .  S
Fe926       O936   1.922       .  S
Fe927       O945   2.014       .  S
Fe927       O932   2.112       .  S
Fe927       O939   2.139       .  S
Fe927       O928   1.991       .  S
Fe927       O936   1.961       .  S
O928        C935   1.255       .  A
O929        C943   1.291       .  A
O930        C935   1.292       .  A
O931        C934   1.270       .  A
O932        C944   1.270       .  A
O933        C946   1.258       .  A
C934        O939   1.282       .  A
C934        C956   1.484       .  S
O937        C940   1.277       .  A
O938        C940   1.264       .  A
O941        C946   1.303       .  A
O942        C944   1.235       .  A
C943        O945   1.268       .  A
C946       C1050   1.490       .  S
Fe947       O963   2.182       .  S
Fe947       O953   2.036       .  S
Fe947       O960   2.071       .  S
Fe947       O952   2.154       .  S
Fe947       O958   1.899       .  S
Fe948       O955   2.009       .  S
Fe948       O959   2.110       .  S
Fe948       O958   1.922       .  S
Fe949       O954   2.112       .  S
Fe949       O961   2.139       .  S
Fe949       O950   1.992       .  S
Fe949       O958   1.961       .  S
O950        C957   1.255       .  A
O951        C965   1.291       .  A
O952        C957   1.292       .  A
O953        C956   1.270       .  A
O954        C966   1.270       .  A
O955        C968   1.258       .  A
C956        O961   1.282       .  A
O959        C962   1.277       .  A
O960        C962   1.264       .  A
O963        C968   1.303       .  A
C965        O967   1.268       .  A
Fe969       O985   2.182       .  S
Fe969       O975   2.036       .  S
Fe969       O982   2.071       .  S
Fe969       O974   2.154       .  S
Fe969       O980   1.899       .  S
Fe970       O977   2.009       .  S
Fe970       O981   2.110       .  S
Fe970       O980   1.922       .  S
Fe971      O1328   2.112       .  S
Fe971       O983   2.139       .  S
Fe971       O972   1.991       .  S
Fe971       O980   1.961       .  S
O972        C979   1.255       .  A
O973        C987   1.291       .  A
O974        C979   1.292       .  A
O975        C978   1.270       .  A
O976      Fe1323   2.112   1_545  S
O976        C988   1.270   1_545  A
O977        C990   1.258       .  A
C978        O983   1.282       .  A
C979       C1406   1.458       .  S
O981        C984   1.277       .  A
O982        C984   1.264       .  A
C984       C1006   1.498       .  S
O985        C990   1.303       .  A
O986       C1164   1.235       .  A
C987        O989   1.268       .  A
C987       C1396   1.458       .  S
C988       O1162   1.235       .  A
C988       C1207   1.451       .  S
Fe991      O1007   2.182       .  S
Fe991       O997   2.036       .  S
Fe991      O1004   2.071       .  S
Fe991       O996   2.154       .  S
Fe991      O1002   1.899       .  S
Fe992       O995   2.139       .  S
Fe992       O999   2.009       .  S
Fe992      O1003   2.110       .  S
Fe992      O1008   1.979       .  S
Fe992      O1002   1.922       .  S
Fe993      O1011   2.014       .  S
Fe993      O1350   2.112       .  S
Fe993      O1005   2.139       .  S
Fe993       O994   1.991       .  S
Fe993      O1002   1.961       .  S
O994       C1001   1.255       .  A
O995       C1009   1.291       .  A
O996       C1001   1.292       .  A
O997       C1000   1.270       .  A
O998      Fe1345   2.112   1_545  S
O998       C1010   1.270   1_545  A
O999       C1012   1.258       .  A
C1000      O1005   1.282       .  A
C1001      C1384   1.458       .  S
O1003      C1006   1.277       .  A
O1004      C1006   1.264       .  A
O1007      C1012   1.303       .  A
O1008      C1362   1.235       .  A
C1009      O1011   1.268       .  A
C1009      C1374   1.458       .  S
C1010      O1360   1.235       .  A
C1010      C1405   1.451       .  S
Fe1013     O1029   2.071       .  S
Fe1013     O1019   2.154       .  S
Fe1013     O1026   2.182       .  S
Fe1013     O1018   2.036       .  S
Fe1013     O1024   1.899       .  S
Fe1014     O1017   1.979       .  S
Fe1014     O1021   2.110       .  S
Fe1014     O1024   1.922       .  S
Fe1015     O1385   2.112       .  S
Fe1015     O1379   1.991       .  S
Fe1015     O1016   2.139   1_565  S
Fe1015     O1024   1.961   1_565  S
O1016      C1023   1.282       .  A
O1017      C1383   1.235   1_545  A
O1018      C1023   1.270       .  A
O1019      C1022   1.292       .  A
O1020      C1032   1.268       .  A
O1021      C1034   1.277       .  A
C1022      O1379   1.255   1_545  A
C1022      C1361   1.458   1_545  S
O1026      C1028   1.303       .  A
O1027     Fe1367   1.991       .  S
O1027      C1374   1.255       .  A
O1029      C1034   1.264       .  A
O1030      C1032   1.290       .  A
C1031      O1369   1.235       .  A
C1031      O1033   1.270       .  A
C1031      C1164   1.451   1_556  S
C1032      C1353   1.458   1_545  S
O1033     Fe1367   2.112       .  S
C1034      C1056   1.498       .  S
Fe1035     O1051   2.071       .  S
Fe1035     O1041   2.154       .  S
Fe1035     O1048   2.182       .  S
Fe1035     O1040   2.036       .  S
Fe1035     O1046   1.899       .  S
Fe1036     O1039   1.979       .  S
Fe1036     O1043   2.110       .  S
Fe1036     O1047   2.009       .  S
Fe1036     O1052   2.139       .  S
Fe1036     O1046   1.922       .  S
Fe1037     O1407   2.112       .  S
Fe1037     O1042   2.014   1_565  S
Fe1037     O1401   1.991       .  S
Fe1037     O1038   2.139   1_565  S
Fe1037     O1046   1.961   1_565  S
O1038      C1045   1.282       .  A
O1039      C1405   1.235   1_545  A
O1040      C1045   1.270       .  A
O1041      C1044   1.292       .  A
O1042      C1054   1.268       .  A
O1043      C1056   1.277       .  A
C1044      O1401   1.255   1_545  A
C1044      C1339   1.458   1_545  S
O1047      C1050   1.258       .  A
O1048      C1050   1.303       .  A
O1049     Fe1389   1.991       .  S
O1049      C1396   1.255       .  A
O1051      C1056   1.264       .  A
O1052      C1054   1.290       .  A
C1053      O1391   1.235       .  A
C1053      O1055   1.270       .  A
C1053      C1362   1.451       .  S
C1054      C1331   1.458   1_545  S
O1055     Fe1389   2.112       .  S
Fe1057     O1073   2.071       .  S
Fe1057     O1063   2.154       .  S
Fe1057     O1070   2.182       .  S
Fe1057     O1062   2.036       .  S
Fe1057     O1068   1.899       .  S
Fe1058     O1061   1.979       .  S
Fe1058     O1065   2.110       .  S
Fe1058     O1069   2.009       .  S
Fe1058     O1074   2.139       .  S
Fe1058     O1068   1.922       .  S
Fe1059     O1077   2.112       .  S
Fe1059     O1064   2.014       .  S
Fe1059     O1071   1.991       .  S
Fe1059     O1060   2.139       .  S
Fe1059     O1068   1.961       .  S
O1060      C1067   1.282       .  A
O1061      C1075   1.235       .  A
O1062      C1067   1.270       .  A
O1063      C1066   1.292       .  A
O1064      C1076   1.268       .  A
O1065      C1078   1.277       .  A
C1066      O1071   1.255       .  A
C1066      C1141   1.459       .  S
C1067      C1089   1.484       .  S
O1069      C1072   1.258       .  A
O1070      C1072   1.303       .  A
C1072      C1188   1.490       .  S
O1073      C1078   1.264       .  A
O1074      C1076   1.290       .  A
C1075      O1077   1.270       .  A
C1076      C1133   1.459       .  S
Fe1079     O1095   2.071       .  S
Fe1079     O1085   2.154       .  S
Fe1079     O1092   2.182       .  S
Fe1079     O1084   2.036       .  S
Fe1079     O1090   1.899       .  S
Fe1080     O1083   1.979       .  S
Fe1080     O1087   2.110       .  S
Fe1080     O1267   2.009       .  S
Fe1080     O1272   2.139       .  S
Fe1080     O1090   1.922       .  S
Fe1081     O1099   2.112       .  S
Fe1081     O1262   2.014       .  S
Fe1081     O1093   1.991       .  S
Fe1081     O1082   2.139       .  S
Fe1081     O1090   1.961       .  S
O1082      C1089   1.282       .  A
O1083      C1097   1.235       .  A
O1084      C1089   1.270       .  A
O1085      C1088   1.292       .  A
O1086     Fe1257   2.014   1_554  S
O1086      C1098   1.268       .  A
O1087      C1100   1.277       .  A
C1088      O1093   1.255       .  A
C1088      C1119   1.459       .  S
O1091     Fe1256   2.009   1_554  S
O1091      C1270   1.258   1_554  A
O1092      C1094   1.303       .  A
C1094      O1267   1.258       .  A
C1094      C1342   1.490       .  S
O1095      C1100   1.264       .  A
O1096     Fe1256   2.139   1_554  S
O1096      C1098   1.290       .  A
C1097      O1099   1.270       .  A
C1098      C1111   1.459       .  S
Fe1101     O1117   2.182       .  S
Fe1101     O1107   2.036       .  S
Fe1101     O1114   2.071       .  S
Fe1101     O1106   2.154       .  S
Fe1101     O1112   1.899       .  S
Fe1102     O1105   2.139       .  S
Fe1102     O1109   2.009       .  S
Fe1102     O1113   2.110       .  S
Fe1102     O1118   1.979       .  S
Fe1102     O1112   1.922       .  S
Fe1103     O1121   2.014       .  S
Fe1103     O1108   2.112       .  S
Fe1103     O1115   2.139       .  S
Fe1103     O1104   1.991       .  S
Fe1103     O1112   1.961       .  S
O1104      C1111   1.255       .  A
O1105      C1119   1.291       .  A
O1106      C1111   1.292       .  A
O1107      C1110   1.270       .  A
O1108      C1120   1.270       .  A
O1109      C1122   1.258       .  A
C1110      O1115   1.282       .  A
C1110      C1132   1.484       .  S
O1113      C1116   1.277       .  A
O1114      C1116   1.264       .  A
O1117      C1122   1.303       .  A
O1118      C1120   1.235       .  A
C1119      O1121   1.268       .  A
C1122      C1226   1.490       .  S
Fe1123     O1139   2.182       .  S
Fe1123     O1129   2.036       .  S
Fe1123     O1136   2.071       .  S
Fe1123     O1128   2.154       .  S
Fe1123     O1134   1.899       .  S
Fe1124     O1303   2.139   1_554  S
Fe1124     O1131   2.009   1_554  S
Fe1124     O1135   2.110       .  S
Fe1124     O1316   1.979       .  S
Fe1124     O1134   1.922       .  S
Fe1125     O1319   2.014   1_554  S
Fe1125     O1130   2.112       .  S
Fe1125     O1137   2.139       .  S
Fe1125     O1126   1.992       .  S
Fe1125     O1134   1.961       .  S
O1126      C1133   1.255       .  A
O1127     Fe1300   2.139       .  S
O1127      C1141   1.291       .  A
O1128      C1133   1.292       .  A
O1129      C1132   1.270       .  A
O1130      C1142   1.270       .  A
O1131      C1144   1.258   1_556  A
C1132      O1137   1.282       .  A
O1135      C1138   1.277       .  A
O1136      C1138   1.264       .  A
O1139      C1144   1.303       .  A
O1140     Fe1300   1.979       .  S
O1140      C1318   1.235       .  A
C1141      O1143   1.268       .  A
C1142      O1316   1.235       .  A
O1143     Fe1301   2.014       .  S
C1144      C1380   1.490   1_554  S
Fe1145     O1161   2.182       .  S
Fe1145     O1151   2.036       .  S
Fe1145     O1158   2.071       .  S
Fe1145     O1150   2.154       .  S
Fe1145     O1156   1.899       .  S
Fe1146     O1325   2.139   1_554  S
Fe1146     O1153   2.009   1_554  S
Fe1146     O1157   2.110       .  S
Fe1146     O1338   1.979       .  S
Fe1146     O1156   1.922       .  S
Fe1147     O1341   2.014   1_554  S
Fe1147     O1159   2.139       .  S
Fe1147     O1148   1.991   1_565  S
Fe1147     O1156   1.961       .  S
O1148      C1155   1.255   1_545  A
O1149     Fe1322   2.139       .  S
O1149      C1163   1.291       .  A
O1150      C1155   1.292       .  A
O1151      C1154   1.270       .  A
O1152      C1164   1.270       .  A
O1153      C1166   1.258   1_556  A
C1154      O1159   1.282       .  A
O1157      C1160   1.277       .  A
O1158      C1160   1.264       .  A
C1160      C1182   1.498       .  S
O1161      C1166   1.303       .  A
O1162     Fe1322   1.979       .  S
C1163      O1165   1.268       .  A
O1165     Fe1323   2.014       .  S
C1166      C1270   1.490   1_554  S
Fe1167     O1183   2.182       .  S
Fe1167     O1173   2.036       .  S
Fe1167     O1180   2.071       .  S
Fe1167     O1172   2.154       .  S
Fe1167     O1178   1.899       .  S
Fe1168     O1171   2.139       .  S
Fe1168     O1175   2.009       .  S
Fe1168     O1179   2.110       .  S
Fe1168     O1184   1.979       .  S
Fe1168     O1178   1.922       .  S
Fe1169     O1187   2.014       .  S
Fe1169     O1181   2.139       .  S
Fe1169     O1170   1.991   1_565  S
Fe1169     O1178   1.961       .  S
O1170      C1177   1.255   1_545  A
O1171      C1185   1.291       .  A
O1172      C1177   1.292       .  A
O1173      C1176   1.270       .  A
O1174      C1186   1.270       .  A
O1175      C1188   1.258       .  A
C1176      O1181   1.282       .  A
O1179      C1182   1.277       .  A
O1180      C1182   1.264       .  A
O1183      C1188   1.303       .  A
C1185      O1187   1.268       .  A
Fe1189     O1205   2.071       .  S
Fe1189     O1195   2.154       .  S
Fe1189     O1202   2.182       .  S
Fe1189     O1194   2.036       .  S
Fe1189     O1200   1.899       .  S
Fe1190     O1193   1.979       .  S
Fe1190     O1197   2.110       .  S
Fe1190     O1377   2.009       .  S
Fe1190     O1382   2.139       .  S
Fe1190     O1200   1.922       .  S
Fe1191     O1372   2.014       .  S
Fe1191     O1192   2.139       .  S
Fe1191     O1200   1.961       .  S
O1192      C1199   1.282       .  A
O1194      C1199   1.270       .  A
O1195      C1198   1.292       .  A
O1196     Fe1367   2.014   1_554  S
O1196      C1208   1.268       .  A
O1197      C1210   1.277       .  A
O1201     Fe1366   2.009   1_554  S
O1201      C1380   1.258   1_554  A
O1202      C1204   1.303       .  A
C1204      O1377   1.258       .  A
C1204      C1320   1.490       .  S
O1205      C1210   1.264       .  A
O1206     Fe1366   2.139   1_554  S
O1206      C1208   1.290       .  A
C1207      O1209   1.270       .  A
C1210      C1232   1.498       .  S
Fe1211     O1227   2.071       .  S
Fe1211     O1217   2.154       .  S
Fe1211     O1224   2.182       .  S
Fe1211     O1216   2.036       .  S
Fe1211     O1222   1.899       .  S
Fe1212     O1215   1.979       .  S
Fe1212     O1219   2.110       .  S
Fe1212     O1223   2.009       .  S
Fe1212     O1228   2.139       .  S
Fe1212     O1222   1.922       .  S
Fe1213     O1218   2.014       .  S
Fe1213     O1214   2.139       .  S
Fe1213     O1222   1.961       .  S
O1214      C1221   1.282       .  A
O1216      C1221   1.270       .  A
O1217      C1220   1.292       .  A
O1218      C1230   1.268       .  A
O1219      C1232   1.277       .  A
O1223      C1226   1.258       .  A
O1224      C1226   1.303       .  A
O1227      C1232   1.264       .  A
O1228      C1230   1.290       .  A
C1229      O1231   1.270       .  A
Fe1233     O1249   2.071       .  S
Fe1233     O1239   2.154       .  S
Fe1233     O1246   2.182       .  S
Fe1233     O1238   2.036       .  S
Fe1233     O1244   1.899       .  S
Fe1234     O1237   1.979       .  S
Fe1234     O1241   2.110       .  S
Fe1234     O1245   2.009       .  S
Fe1234     O1250   2.139       .  S
Fe1234     O1244   1.922       .  S
Fe1235     O1253   2.112       .  S
Fe1235     O1240   2.014       .  S
Fe1235     O1247   1.991       .  S
Fe1235     O1236   2.139       .  S
Fe1235     O1244   1.961       .  S
O1236      C1243   1.282       .  A
O1237      C1251   1.235       .  A
O1238      C1243   1.270       .  A
O1239      C1242   1.292       .  A
O1240      C1252   1.268       .  A
O1241      C1254   1.277       .  A
C1242      O1247   1.255       .  A
C1242      C1317   1.459       .  S
C1243      C1265   1.484       .  S
O1245      C1248   1.258       .  A
O1246      C1248   1.303       .  A
C1248      C1364   1.490       .  S
O1249      C1254   1.264       .  A
O1250      C1252   1.290       .  A
C1251      O1253   1.270       .  A
C1252      C1309   1.459       .  S
Fe1255     O1271   2.071       .  S
Fe1255     O1261   2.154       .  S
Fe1255     O1268   2.182       .  S
Fe1255     O1260   2.036       .  S
Fe1255     O1266   1.899       .  S
Fe1256     O1259   1.979       .  S
Fe1256     O1263   2.110       .  S
Fe1256     O1266   1.922       .  S
Fe1257     O1275   2.112       .  S
Fe1257     O1269   1.991       .  S
Fe1257     O1258   2.139       .  S
Fe1257     O1266   1.961       .  S
O1258      C1265   1.282       .  A
O1259      C1273   1.235       .  A
O1260      C1265   1.270       .  A
O1261      C1264   1.292       .  A
O1262      C1274   1.268       .  A
O1263      C1276   1.277       .  A
C1264      O1269   1.255       .  A
C1264      C1295   1.459       .  S
O1268      C1270   1.303       .  A
O1271      C1276   1.264       .  A
O1272      C1274   1.290       .  A
C1273      O1275   1.270       .  A
C1274      C1287   1.459       .  S
Fe1277     O1293   2.182       .  S
Fe1277     O1283   2.036       .  S
Fe1277     O1290   2.071       .  S
Fe1277     O1282   2.154       .  S
Fe1277     O1288   1.899       .  S
Fe1278     O1281   2.139       .  S
Fe1278     O1285   2.009       .  S
Fe1278     O1289   2.110       .  S
Fe1278     O1294   1.979       .  S
Fe1278     O1288   1.922       .  S
Fe1279     O1297   2.014       .  S
Fe1279     O1284   2.112       .  S
Fe1279     O1291   2.139       .  S
Fe1279     O1280   1.991       .  S
Fe1279     O1288   1.961       .  S
O1280      C1287   1.255       .  A
O1281      C1295   1.291       .  A
O1282      C1287   1.292       .  A
O1283      C1286   1.270       .  A
O1284      C1296   1.270       .  A
O1285      C1298   1.258       .  A
C1286      O1291   1.282       .  A
C1286      C1308   1.484       .  S
O1289      C1292   1.277       .  A
O1290      C1292   1.264       .  A
O1293      C1298   1.303       .  A
O1294      C1296   1.235       .  A
C1295      O1297   1.268       .  A
C1298      C1402   1.490       .  S
Fe1299     O1315   2.182       .  S
Fe1299     O1305   2.036       .  S
Fe1299     O1312   2.071       .  S
Fe1299     O1304   2.154       .  S
Fe1299     O1310   1.899       .  S
Fe1300     O1307   2.009       .  S
Fe1300     O1311   2.110       .  S
Fe1300     O1310   1.922       .  S
Fe1301     O1306   2.112       .  S
Fe1301     O1313   2.139       .  S
Fe1301     O1302   1.992       .  S
Fe1301     O1310   1.961       .  S
O1302      C1309   1.255       .  A
O1303      C1317   1.291       .  A
O1304      C1309   1.292       .  A
O1305      C1308   1.270       .  A
O1306      C1318   1.270       .  A
O1307      C1320   1.258       .  A
C1308      O1313   1.282       .  A
O1311      C1314   1.277       .  A
O1312      C1314   1.264       .  A
O1315      C1320   1.303       .  A
C1317      O1319   1.268       .  A
Fe1321     O1337   2.182       .  S
Fe1321     O1327   2.036       .  S
Fe1321     O1334   2.071       .  S
Fe1321     O1326   2.154       .  S
Fe1321     O1332   1.899       .  S
Fe1322     O1329   2.009       .  S
Fe1322     O1333   2.110       .  S
Fe1322     O1332   1.922       .  S
Fe1323     O1335   2.139       .  S
Fe1323     O1324   1.991   1_565  S
Fe1323     O1332   1.961       .  S
O1324      C1331   1.255   1_545  A
O1325      C1339   1.291       .  A
O1326      C1331   1.292       .  A
O1327      C1330   1.270       .  A
O1328      C1340   1.270       .  A
O1329      C1342   1.258       .  A
C1330      O1335   1.282       .  A
O1333      C1336   1.277       .  A
O1334      C1336   1.264       .  A
C1336      C1358   1.498       .  S
O1337      C1342   1.303       .  A
C1339      O1341   1.268       .  A
Fe1343     O1359   2.182       .  S
Fe1343     O1349   2.036       .  S
Fe1343     O1356   2.071       .  S
Fe1343     O1348   2.154       .  S
Fe1343     O1354   1.899       .  S
Fe1344     O1347   2.139       .  S
Fe1344     O1351   2.009       .  S
Fe1344     O1355   2.110       .  S
Fe1344     O1360   1.979       .  S
Fe1344     O1354   1.922       .  S
Fe1345     O1363   2.014       .  S
Fe1345     O1357   2.139       .  S
Fe1345     O1346   1.991   1_565  S
Fe1345     O1354   1.961       .  S
O1346      C1353   1.255   1_545  A
O1347      C1361   1.291       .  A
O1348      C1353   1.292       .  A
O1349      C1352   1.270       .  A
O1350      C1362   1.270       .  A
O1351      C1364   1.258       .  A
C1352      O1357   1.282       .  A
O1355      C1358   1.277       .  A
O1356      C1358   1.264       .  A
O1359      C1364   1.303       .  A
C1361      O1363   1.268       .  A
Fe1365     O1381   2.071       .  S
Fe1365     O1371   2.154       .  S
Fe1365     O1378   2.182       .  S
Fe1365     O1370   2.036       .  S
Fe1365     O1376   1.899       .  S
Fe1366     O1369   1.979       .  S
Fe1366     O1373   2.110       .  S
Fe1366     O1376   1.922       .  S
Fe1367     O1368   2.139       .  S
Fe1367     O1376   1.961       .  S
O1368      C1375   1.282       .  A
O1370      C1375   1.270       .  A
O1371      C1374   1.292       .  A
O1372      C1384   1.268       .  A
O1373      C1386   1.277       .  A
O1378      C1380   1.303       .  A
O1381      C1386   1.264       .  A
O1382      C1384   1.290       .  A
C1383      O1385   1.270       .  A
C1386      C1408   1.498       .  S
Fe1387     O1403   2.071       .  S
Fe1387     O1393   2.154       .  S
Fe1387     O1400   2.182       .  S
Fe1387     O1392   2.036       .  S
Fe1387     O1398   1.899       .  S
Fe1388     O1391   1.979       .  S
Fe1388     O1395   2.110       .  S
Fe1388     O1399   2.009       .  S
Fe1388     O1404   2.139       .  S
Fe1388     O1398   1.922       .  S
Fe1389     O1394   2.014       .  S
Fe1389     O1390   2.139       .  S
Fe1389     O1398   1.961       .  S
O1390      C1397   1.282       .  A
O1392      C1397   1.270       .  A
O1393      C1396   1.292       .  A
O1394      C1406   1.268       .  A
O1395      C1408   1.277       .  A
O1399      C1402   1.258       .  A
O1400      C1402   1.303       .  A
O1403      C1408   1.264       .  A
O1404      C1406   1.290       .  A
C1405      O1407   1.270       .  A
