geometry optimzed in LAMMPS
_audit_creation_date              2020-12-01 
_audit_creation_method            'lammps2cif' 
_symmetry_space_group_name_H-M    'P1' 
_symmetry_Int_Tables_number       1 
_symmetry_cell_setting            triclinic 
loop_ 
_symmetry_equiv_pos_as_xyz 
  x,y,z 
_cell_length_a                    57.51144389 
_cell_length_b                    47.152713398795825 
_cell_length_c                    27.728829305936188 
_cell_angle_alpha                 90.04433660818412 
_cell_angle_beta                  90.08188241827376 
_cell_angle_gamma                 89.90187568239861 
loop_ 
_atom_site_label 
_atom_site_type_symbol 
_atom_site_fract_x 
_atom_site_fract_y 
_atom_site_fract_z 
_atom_site_charge 
O1          O  0.40824416  0.81220210  0.59270851    -0.82000
C2          C  0.33032588  0.87091192  0.64928566     0.97400
O3          O  0.34859638  0.86102609  0.66774974    -0.71100
O4          O  0.38326281  0.82566053  0.67845610    -0.74700
Al5        Al  0.37782780  0.85852284  0.63770364     1.49000
C6          C  0.37604207  0.80031731  0.67630475     0.92600
O7          O  0.34670701  0.79064411  0.55253030    -0.80900
O8          O  0.35269102  0.83676982  0.49247363    -0.74400
Al9        Al  0.37639926  0.80484217  0.57462222     1.90100
O10         O  0.32282987  0.82608103  0.56705631    -0.73500
O11         O  0.36319783  0.88600614  0.53449457    -0.73400
O12         O  0.32945415  0.87626419  0.60455258    -0.79000
O13         O  0.37510341  0.89585785  0.60775982    -0.77200
O14         O  0.36615870  0.83946824  0.58818610    -1.13400
O15         O  0.40802397  0.85723310  0.61257720    -0.72600
C16         C  0.41898892  0.83517135  0.60095005     0.98200
C17         C  0.32633163  0.80083857  0.55431341     0.94600
Al18       Al  0.34397741  0.85520485  0.55246844     1.55600
O19         O  0.36888241  0.79049827  0.63664089    -0.77200
C20         C  0.37181454  0.90331489  0.56424479     0.98700
C21         C  0.37007775  0.82207185  0.47978937     0.93600
O22         O  0.38496684  0.81499203  0.51101044    -0.82500
O23         O  0.62747441  0.81546251  0.52277807    -0.82000
C24         C  0.68267746  0.87366628  0.65829794     0.97400
O25         O  0.68299351  0.87892238  0.61352697    -0.71100
O26         O  0.68911438  0.82882293  0.57758836    -0.74700
Al27       Al  0.66799001  0.85739046  0.56249920     1.49000
C28         C  0.68626046  0.80304666  0.56798806     0.92600
O29         O  0.64352158  0.79381544  0.64974779    -0.80900
O30         O  0.60412208  0.86002622  0.62472857    -0.74400
Al31       Al  0.63613873  0.80703104  0.58718809     1.90100
O32         O  0.62957413  0.82948882  0.69070490    -0.73500
O33         O  0.63692876  0.89889203  0.61701909    -0.73400
O34         O  0.66440035  0.86449347  0.67770279    -0.79000
O35         O  0.64886765  0.88796686  0.54416597    -0.77200
O36         O  0.64607313  0.84204789  0.59917882    -1.13400
O37         O  0.65888260  0.83846764  0.50290492    -0.72600
C38         C  0.64162102  0.82337439  0.49087200     0.98200
C39         C  0.63630328  0.80393239  0.68903391     0.94600
Al40       Al  0.63470640  0.86177047  0.64856376     1.55600
O41         O  0.66608802  0.79230534  0.56686146    -0.77200
C42         C  0.64016911  0.90563496  0.57313186     0.98700
C43         C  0.59347624  0.83765369  0.61335442     0.93600
O44         O  0.60436797  0.81489282  0.60418672    -0.82500
O45         O  0.59990524  0.69189590  0.10549071    -0.82000
C46         C  0.68019011  0.63586878  0.15611139     0.97400
O47         O  0.66192636  0.64454732  0.17640256    -0.71100
O48         O  0.62626431  0.67831674  0.19085197    -0.74700
Al49       Al  0.63185804  0.64609746  0.14825664     1.49000
C50         C  0.63258874  0.70403124  0.18871858     0.92600
O51         O  0.66064789  0.71648241  0.06569340    -0.80900
O52         O  0.65451953  0.67020363  0.00257256    -0.74400
Al53       Al  0.63128223  0.70075719  0.08689426     1.90100
O54         O  0.68489661  0.68106427  0.07562895    -0.73500
O55         O  0.64587682  0.62072290  0.04334411    -0.73400
O56         O  0.68017053  0.63062248  0.11137933    -0.79000
O57         O  0.63515208  0.60894236  0.11650732    -0.77200
O58         O  0.64230902  0.66621995  0.09862906    -1.13400
O59         O  0.60086394  0.64670674  0.12520588    -0.72600
C60         C  0.58953835  0.66892281  0.11524957     0.98200
C61         C  0.68121509  0.70684000  0.06694748     0.94600
Al62       Al  0.66437759  0.65172052  0.06124033     1.55600
O63         O  0.63887770  0.71437867  0.14899551    -0.77200
C64         C  0.63865714  0.60232894  0.07258247     0.98700
C65         C  0.63669673  0.68438282  0.99083356     0.93600
O66         O  0.62237170  0.69178756  0.02276856    -0.82500
O67         O  0.38312889  0.68807858  0.01302773    -0.82000
C68         C  0.32404844  0.63054427  0.14424737     0.97400
O69         O  0.32399881  0.62817376  0.09878576    -0.71100
O70         O  0.31952060  0.67953936  0.06442863    -0.74700
Al71       Al  0.34009972  0.64984070  0.04992059     1.49000
C72         C  0.32400828  0.70489216  0.05403253     0.92600
O73         O  0.36468696  0.71270475  0.13677134    -0.80900
O74         O  0.40317855  0.64537070  0.11868467    -0.74400
Al75       Al  0.37328622  0.69832589  0.07601761     1.90100
O76         O  0.37557092  0.67665361  0.18131249    -0.73500
O77         O  0.36969258  0.60747798  0.10620747    -0.73400
O78         O  0.34148354  0.64103562  0.16496737    -0.79000
O79         O  0.35887309  0.61892064  0.03253849    -0.77200
O80         O  0.36185756  0.66410377  0.08831339    -1.13400
O81         O  0.35046852  0.66856428  0.99126654    -0.72600
C82         C  0.36889766  0.68165238  0.98016852     0.98200
C83         C  0.36983167  0.70254966  0.17732545     0.94600
Al84       Al  0.37172974  0.64419910  0.13873609     1.55600
O85         O  0.34466930  0.71388909  0.05208234    -0.77200
C86         C  0.36693472  0.60109414  0.06197757     0.98700
C87         C  0.41457873  0.66718612  0.10733308     0.93600
O88         O  0.40426182  0.69004867  0.09701999    -0.82500
O89         O  0.10439397  0.81466536  0.88136119    -0.82000
C90         C  0.18205774  0.87781690  0.84045805     0.97400
O91         O  0.16425468  0.86865009  0.81901082    -0.71100
O92         O  0.13095524  0.83270031  0.80014424    -0.74700
Al93       Al  0.13423521  0.86389061  0.84517070     1.49000
C94         C  0.13917702  0.80779485  0.80097516     0.92600
O95         O  0.16529227  0.79355191  0.92392461    -0.80900
O96         O  0.15609965  0.83738261  0.99015397    -0.74400
Al97       Al  0.13581481  0.80786039  0.90182365     1.90100
O98         O  0.18801861  0.83064828  0.91878176    -0.73500
O99         O  0.14573100  0.88780961  0.95231546    -0.73400
O100        O  0.18157537  0.88134312  0.88572487    -0.79000
O101        O  0.13511578  0.89983494  0.87936999    -0.77200
O102        O  0.14521604  0.84333607  0.89374608    -1.13400
O103        O  0.10316852  0.86030752  0.86666143    -0.72600
C104        C  0.09283910  0.83720610  0.87457778     0.98200
C105        C  0.18540032  0.80437340  0.92340063     0.94600
Al106      Al  0.16600173  0.85826243  0.93366321     1.55600
O107        O  0.14549664  0.79695920  0.84021141    -0.77200
C108        C  0.13716955  0.90585321  0.92374308     0.98700
C109        C  0.13879728  0.82157581  0.99868511     0.93600
O110        O  0.12529966  0.81455537  0.96506749    -0.82500
O111        O  0.88505092  0.80994346  0.98165325    -0.82000
C112        C  0.83117391  0.87397715  0.85129421     0.97400
O113        O  0.83166180  0.87856546  0.89649627    -0.71100
O114        O  0.82283268  0.82961054  0.93507844    -0.74700
Al115      Al  0.84637740  0.85594698  0.94695815     1.49000
C116        C  0.82437814  0.80368619  0.94488503     0.92600
O117        O  0.86414159  0.79096740  0.85658287    -0.80900
O118        O  0.90845062  0.85306977  0.88232356    -0.74400
Al119      Al  0.87412609  0.80263294  0.91854818     1.90100
O120        O  0.88126031  0.82477537  0.81654440    -0.73500
O121        O  0.87771859  0.89431403  0.88876084    -0.73400
O122        O  0.84833653  0.86238970  0.83108378    -0.79000
O123        O  0.86816325  0.88440623  0.96324858    -0.77200
O124        O  0.86619975  0.83848744  0.90824665    -1.13400
O125        O  0.85560815  0.83595475  0.00510796    -0.72600
C126        C  0.87196313  0.81880383  0.01469820     0.98200
C127        C  0.87222118  0.80037414  0.81751081     0.94600
Al128      Al  0.87802009  0.85722125  0.85860956     1.55600
O129        O  0.84379329  0.79092903  0.94247553    -0.77200
C130        C  0.87638703  0.90139436  0.93271894     0.98700
C131        C  0.91805378  0.82952282  0.89074201     0.93600
O132        O  0.90606624  0.80733191  0.89783125    -0.82500
O133        O  0.90641418  0.68957383  0.40220530    -0.82000
C134        C  0.82900623  0.62856159  0.34830029     0.97400
O135        O  0.84758301  0.63719744  0.32953393    -0.71100
O136        O  0.88119924  0.67306807  0.31573272    -0.74700
Al137      Al  0.87690760  0.64130742  0.35939616     1.49000
C138        C  0.87360595  0.69832709  0.31689898     0.92600
O139        O  0.84512682  0.71151381  0.43864713    -0.80900
O140        O  0.85124543  0.66641273  0.50277249    -0.74400
Al141      Al  0.87480140  0.69674273  0.41901240     1.90100
O142        O  0.82147134  0.67572167  0.42748906    -0.73500
O143        O  0.86146595  0.61651243  0.46407465    -0.73400
O144        O  0.82794921  0.62500539  0.39342606    -0.79000
O145        O  0.87501713  0.60470400  0.39298116    -0.77200
O146        O  0.86496300  0.66163877  0.40762151    -1.13400
O147        O  0.90764392  0.64430390  0.38312212    -0.72600
C148        C  0.91777680  0.66728583  0.39308415     0.98200
C149        C  0.82476120  0.70155660  0.43617612     0.94600
Al150      Al  0.84257547  0.64696405  0.44393462     1.55600
O151        O  0.86732404  0.70905733  0.35632168    -0.77200
C152        C  0.87052960  0.59834050  0.43658907     0.98700
C153        C  0.86863831  0.68122235  0.51497930     0.93600
O154        O  0.88326399  0.68865915  0.48367683    -0.82500
O155        O  0.13032908  0.69856013  0.46903964    -0.82000
C156        C  0.17766761  0.63207041  0.33253604     0.97400
O157        O  0.17989711  0.62934777  0.37755740    -0.71100
O158        O  0.18937289  0.68123217  0.40434584    -0.74700
Al159      Al  0.16818852  0.65408488  0.42722078     1.49000
C160        C  0.18735984  0.70750197  0.41172763     0.92600
O161        O  0.14192415  0.71529067  0.33843110    -0.80900
O162        O  0.10160295  0.65297441  0.37710591    -0.74400
Al163      Al  0.13654452  0.70477188  0.40291251     1.90100
O164        O  0.12574657  0.67869570  0.30334769    -0.73500
O165        O  0.13303708  0.61251993  0.38490297    -0.73400
O166        O  0.15911143  0.64174189  0.31494981    -0.79000
O167        O  0.14903395  0.62554245  0.45307697    -0.77200
O168        O  0.14506856  0.66898543  0.39302137    -1.13400
O169        O  0.16253354  0.67566878  0.48497150    -0.72600
C170        C  0.14593172  0.69129985  0.49850992     0.98200
C171        C  0.13362506  0.70372402  0.30129024     0.94600
Al172      Al  0.13098050  0.64803305  0.34862987     1.55600
O173        O  0.16742048  0.71847962  0.41669198    -0.77200
C174        C  0.13795489  0.60744153  0.42884687     0.98700
C175        C  0.09196175  0.67634482  0.38670960     0.93600
O176        O  0.10397200  0.69859736  0.39145350    -0.82500
O177        O  0.60197294  0.31332121  0.90735551    -0.82000
C178        C  0.68111188  0.36835096  0.84797881     0.97400
O179        O  0.66199432  0.36027550  0.83084107    -0.71100
O180        O  0.62677575  0.32564410  0.82182457    -0.74700
Al181      Al  0.63310515  0.35851072  0.86269255     1.49000
C182        C  0.63315152  0.29986699  0.82475612     0.92600
O183        O  0.66203279  0.28844389  0.94798415    -0.80900
O184        O  0.65855390  0.33580748  0.00652673    -0.74400
Al185      Al  0.63329789  0.30476267  0.92586666     1.90100
O186        O  0.68761837  0.32145415  0.93192139    -0.73500
O187        O  0.65132835  0.38494425  0.96397631    -0.73400
O188        O  0.68346595  0.37171406  0.89302681    -0.79000
O189        O  0.63704996  0.39574433  0.89324527    -0.77200
O190        O  0.64481577  0.33867502  0.91157428    -1.13400
O191        O  0.60276127  0.35836382  0.88882816    -0.72600
C192        C  0.59143324  0.33627550  0.89887673     0.98200
C193        C  0.68289691  0.29650772  0.94453223     0.94600
Al194      Al  0.66821195  0.35254802  0.94599659     1.55600
O195        O  0.64038404  0.29015038  0.86431327    -0.77200
C196        C  0.64205337  0.40283323  0.93625678     0.98700
C197        C  0.64032846  0.32298820  0.02010805     0.93600
O198        O  0.62521243  0.31575467  0.98948076    -0.82500
O199        O  0.38523567  0.31220505  0.96663732    -0.82000
C200        C  0.32751905  0.37374943  0.84031694     0.97400
O201        O  0.32682177  0.37624793  0.88588210    -0.71100
O202        O  0.32163547  0.32500979  0.91906233    -0.74700
Al203      Al  0.34282654  0.35385351  0.93479559     1.49000
C204        C  0.32551798  0.29922134  0.92690855     0.92600
O205        O  0.36513911  0.29419526  0.84152808    -0.80900
O206        O  0.40565712  0.35934813  0.87126528    -0.74400
Al207      Al  0.37483016  0.30507090  0.90336331     1.90100
O208        O  0.37988450  0.33006099  0.80245365    -0.73500
O209        O  0.37215896  0.39735790  0.88146358    -0.73400
O210        O  0.34554924  0.36467355  0.81982905    -0.79000
O211        O  0.36180741  0.38446905  0.95431744    -0.77200
O212        O  0.36430938  0.34011772  0.89549544    -1.13400
O213        O  0.35369090  0.33336858  0.99192124    -0.72600
C214        C  0.37166621  0.31844263  0.00058502     0.98200
C215        C  0.37149766  0.30519854  0.80241249     0.94600
Al216      Al  0.37505146  0.36128629  0.84758921     1.55600
O217        O  0.34597617  0.28940251  0.92660223    -0.77200
C218        C  0.36927075  0.40311509  0.92578048     0.98700
C219        C  0.41673054  0.33670206  0.87871445     0.93600
O220        O  0.40616595  0.31324026  0.88257949    -0.82500
O221        O  0.40348101  0.19331559  0.38954470    -0.82000
C222        C  0.32843161  0.12653761  0.33654920     0.97400
O223        O  0.34686396  0.13582341  0.31758424    -0.71100
O224        O  0.38035621  0.17283395  0.30323597    -0.74700
Al225      Al  0.37586962  0.14243900  0.34941790     1.49000
C226        C  0.37290049  0.19810169  0.30149058     0.92600
O227        O  0.34026427  0.21363083  0.41964076    -0.80900
O228        O  0.34691545  0.17096028  0.48789848    -0.74400
Al229      Al  0.37106604  0.19966829  0.40310025     1.90100
O230        O  0.31870009  0.17602303  0.40855032    -0.73500
O231        O  0.35912022  0.12003047  0.45546885    -0.73400
O232        O  0.32720367  0.12458421  0.38184881    -0.79000
O233        O  0.37429151  0.10714173  0.38608410    -0.77200
O234        O  0.36253749  0.16369333  0.39451356    -1.13400
O235        O  0.40608251  0.14761394  0.37613661    -0.72600
C236        C  0.41569052  0.17110560  0.38554177     0.98200
C237        C  0.32042799  0.20205190  0.41735351     0.94600
Al238      Al  0.34001212  0.14908816  0.43053806     1.55600
O239        O  0.36464000  0.20989582  0.33847572    -0.77200
C240        C  0.36922235  0.10174169  0.42971806     0.98700
C241        C  0.36385714  0.18655044  0.49990831     0.93600
O242        O  0.37861941  0.19394651  0.46889131    -0.82500
O243        O  0.62530688  0.19350394  0.48448293    -0.82000
C244        C  0.68082603  0.13042089  0.35478591     0.97400
O245        O  0.68058996  0.12719531  0.40009351    -0.71100
O246        O  0.68789346  0.17737991  0.43529498    -0.74700
Al247      Al  0.66555420  0.14984648  0.44935314     1.49000
C248        C  0.68536351  0.20299471  0.44642305     0.92600
O249        O  0.64512407  0.21353329  0.35980546    -0.80900
O250        O  0.60217590  0.15031806  0.38426539    -0.74400
Al251      Al  0.63565219  0.20144927  0.42132693     1.90100
O252        O  0.63013724  0.17854672  0.31826056    -0.73500
O253        O  0.63342100  0.10949426  0.39457655    -0.73400
O254        O  0.66320283  0.14073959  0.33393260    -0.79000
O255        O  0.64522328  0.12054306  0.46723774    -0.77200
O256        O  0.64467783  0.16586185  0.41083670    -1.13400
O257        O  0.65591190  0.16954873  0.50753558    -0.72600
C258        C  0.63853411  0.18499948  0.51769463     0.98200
C259        C  0.63820831  0.20354649  0.32019683     0.94600
Al260      Al  0.63314690  0.14626171  0.36162507     1.55600
O261        O  0.66550448  0.21463314  0.44532944    -0.77200
C262        C  0.63567158  0.10323656  0.43896736     0.98700
C263        C  0.59204714  0.17336401  0.39418887     0.93600
O264        O  0.60370995  0.19583905  0.40076769    -0.82500
O265        O  0.90518400  0.31364580  0.58819081    -0.82000
C266        C  0.82366788  0.37280517  0.64281526     0.97400
O267        O  0.84358505  0.37563011  0.66109367    -0.71100
O268        O  0.86641164  0.33343019  0.69848250    -0.74700
Al269      Al  0.87325682  0.35998356  0.64693298     1.49000
C270        C  0.87206195  0.30762072  0.70099057     0.92600
O271        O  0.84392953  0.28519489  0.60677048    -0.80900
O272        O  0.86037007  0.33602706  0.50078255    -0.74400
Al273      Al  0.87418990  0.30102746  0.59774517     1.90100
O274        O  0.82538768  0.31406557  0.55713726    -0.73500
O275        O  0.85541459  0.38456236  0.54667575    -0.73400
O276        O  0.82112908  0.36149504  0.60211933    -0.79000
O277        O  0.88105412  0.39078116  0.60363690    -0.77200
O278        O  0.86332726  0.33668878  0.60002333    -1.13400
O279        O  0.90510941  0.34815057  0.64153290    -0.72600
C280        C  0.91606755  0.33158691  0.61347896     0.98200
C281        C  0.82614884  0.29176340  0.58220749     0.94600
Al282      Al  0.84254244  0.34821189  0.55577134     1.55600
O283        O  0.87961336  0.29545496  0.66405857    -0.77200
C284        C  0.87114560  0.39932779  0.56547942     0.98700
C285        C  0.86707351  0.31079160  0.49515164     0.93600
O286        O  0.87155483  0.29581558  0.53122417    -0.82500
O287        O  0.12122677  0.31757094  0.51606314    -0.82000
C288        C  0.18187687  0.37698050  0.64129962     0.97400
O289        O  0.18169655  0.37914877  0.59578948    -0.71100
O290        O  0.18547226  0.32842206  0.55958730    -0.74700
Al291      Al  0.16446472  0.35807082  0.54751979     1.49000
C292        C  0.18125885  0.30268177  0.55168592     0.92600
O293        O  0.14232458  0.29691326  0.64036625    -0.80900
O294        O  0.10234696  0.36349593  0.61700508    -0.74400
Al295      Al  0.13230743  0.30933814  0.57902231     1.90100
O296        O  0.12984427  0.33335777  0.68190247    -0.73500
O297        O  0.13567425  0.40139943  0.60452070    -0.73400
O298        O  0.16400219  0.36826268  0.66289678    -0.79000
O299        O  0.14579500  0.38963421  0.53108125    -0.77200
O300        O  0.14342278  0.34416043  0.58787152    -1.13400
O301        O  0.15249136  0.33901670  0.49042126    -0.72600
C302        C  0.13443237  0.32449728  0.48171768     0.98200
C303        C  0.13695776  0.30789566  0.68026282     0.94600
Al304      Al  0.13371217  0.36498981  0.63746476     1.55600
O305        O  0.16068703  0.29338216  0.55380659    -0.77200
C306        C  0.13840370  0.40793450  0.56053062     0.98700
C307        C  0.09109116  0.34098100  0.60979471     0.93600
O308        O  0.10144254  0.31771285  0.60210226    -0.82500
O309        O  0.10271009  0.19536663  0.09504858    -0.82000
C310        C  0.17923470  0.13166201  0.14605973     0.97400
O311        O  0.16125536  0.14141206  0.16625294    -0.71100
O312        O  0.12682205  0.17749659  0.18113570    -0.74700
Al313      Al  0.13156826  0.14604409  0.13672565     1.49000
C314        C  0.13409635  0.20282986  0.18108845     0.92600
O315        O  0.16542368  0.21539234  0.06138835    -0.80900
O316        O  0.15737270  0.17169460  0.99352966    -0.74400
Al317      Al  0.13488914  0.20198858  0.07946685     1.90100
O318        O  0.18739885  0.17757456  0.06855430    -0.73500
O319        O  0.14486218  0.12202426  0.03076800    -0.73400
O320        O  0.17914231  0.12701155  0.10105822    -0.79000
O321        O  0.13324060  0.10958572  0.10297688    -0.77200
O322        O  0.14375163  0.16635442  0.08909851    -1.13400
O323        O  0.10108639  0.14973686  0.11156671    -0.72600
C324        C  0.09107545  0.17290791  0.10168568     0.98200
C325        C  0.18534529  0.20379637  0.06215302     0.94600
Al326      Al  0.16523686  0.15071020  0.05148075     1.55600
O327        O  0.14212535  0.21341676  0.14296393    -0.77200
C328        C  0.13624715  0.10376271  0.05864650     0.98700
C329        C  0.14068712  0.18798785  0.98247640     0.93600
O330        O  0.12646686  0.19560147  0.01439056    -0.82500
O331        O  0.87967173  0.18599226  0.02620844    -0.82000
C332        C  0.82957708  0.12063722  0.16058663     0.97400
O333        O  0.82925396  0.11638189  0.11536315    -0.71100
O334        O  0.81924144  0.16619594  0.08195364    -0.74700
Al335      Al  0.84219285  0.14019815  0.06446572     1.49000
C336        C  0.82040803  0.19245743  0.07477073     0.92600
O337        O  0.86298345  0.20401367  0.15339228    -0.80900
O338        O  0.90674287  0.14245622  0.12352114    -0.74400
Al339      Al  0.87096189  0.19275682  0.09071121     1.90100
O340        O  0.88016723  0.16950640  0.19220856    -0.73500
O341        O  0.87574327  0.10119784  0.11678015    -0.73400
O342        O  0.84736109  0.13166192  0.17955668    -0.79000
O343        O  0.86352943  0.11207310  0.04393348    -0.77200
O344        O  0.86334998  0.15691422  0.10129169    -1.13400
O345        O  0.84908931  0.16163561  0.00552232    -0.72600
C346        C  0.86510164  0.17896013  0.99457114     0.98200
C347        C  0.87122496  0.19401673  0.19172805     0.94600
Al348      Al  0.87648949  0.13762870  0.14920700     1.55600
O349        O  0.83994462  0.20478689  0.07233660    -0.77200
C350        C  0.87298884  0.09481982  0.07270186     0.98700
C351        C  0.91594995  0.16585476  0.11226415     0.93600
O352        O  0.90348668  0.18781340  0.10651231    -0.82500
C353        C  0.06542685  0.17361958  0.09842423    -0.12100
C354        C  0.05217005  0.19646038  0.11677327     0.03300
C355        C  0.02784591  0.19499909  0.11623314    -0.12700
C356        C  0.01638615  0.17120761  0.09735101     0.18200
C357        C  0.02957647  0.14918659  0.07660238    -0.09700
C358        C  0.05386096  0.15032738  0.07792501    -0.02700
H359        H  0.01780844  0.21217151  0.13182389     0.04700
C360        C  0.99073568  0.16947704  0.10083154     0.20200
H361        H  0.06377931  0.13293213  0.06270868     0.09900
C362        C  0.97698038  0.18801914  0.07351163    -0.16000
C363        C  0.95267431  0.18718654  0.07627243     0.02900
C364        C  0.94164175  0.16757762  0.10735794    -0.11400
C365        C  0.95558532  0.14902412  0.13467392    -0.01400
C366        C  0.97986610  0.14998600  0.13192132    -0.06600
H367        H  0.98523392  0.20304418  0.04945108     0.05900
H368        H  0.94758256  0.13399534  0.15907611     0.09300
Br369      Br  0.01518392  0.11743661  0.04525581    -0.06300
Br370      Br  0.06610179  0.22914691  0.14640694    -0.03200
Br371      Br  0.93588775  0.21235482  0.03445871    -0.00400
Br372      Br  0.99748243  0.12507281  0.17282613    -0.04700
C373        C  0.13226795  0.22119638  0.22469253    -0.12100
C374        C  0.13504862  0.21095544  0.27220832     0.03300
C375        C  0.13406837  0.22984696  0.31135021    -0.12700
C376        C  0.12909603  0.25883526  0.30474299     0.18200
C377        C  0.12560404  0.26885511  0.25735864    -0.09700
C378        C  0.12757680  0.25025332  0.21811473    -0.02700
H379        H  0.13712154  0.22178901  0.34737280     0.04700
C380        C  0.12808616  0.27811109  0.34761118     0.20200
H381        H  0.12484380  0.25850638  0.18209531     0.09900
C382        C  0.14296134  0.30170087  0.35036123    -0.16000
C383        C  0.14396681  0.31879139  0.39187700     0.02900
C384        C  0.13026385  0.31202924  0.43271057    -0.11400
C385        C  0.11442268  0.28935565  0.42859513    -0.01400
C386        C  0.11327174  0.27255518  0.38695190    -0.06600
H387        H  0.15436083  0.30647106  0.32039908     0.05900
H388        H  0.10350980  0.28364602  0.45884940     0.09300
Br389      Br  0.11680613  0.30735425  0.24405952    -0.06300
Br390      Br  0.14072212  0.17171712  0.28638033    -0.03200
Br391      Br  0.16450581  0.35083794  0.38979431    -0.00400
Br392      Br  0.09117666  0.24206292  0.38617506    -0.04700
C393        C  0.13813455  0.28995804  0.72449693    -0.12100
C394        C  0.14258895  0.30104788  0.77103860     0.03300
C395        C  0.14363485  0.28280726  0.81102764    -0.12700
C396        C  0.14001130  0.25353922  0.80588627     0.18200
C397        C  0.13546960  0.24245141  0.75977788    -0.09700
C398        C  0.13479480  0.26049114  0.71968922    -0.02700
H399        H  0.14713285  0.29152618  0.84645884     0.04700
C400        C  0.14023468  0.23501403  0.84917330     0.20200
H401        H  0.13121797  0.25140048  0.68456810     0.09900
C402        C  0.11913939  0.22815812  0.87159210    -0.16000
C403        C  0.11865176  0.21168439  0.91369921     0.02900
C404        C  0.13961223  0.20127253  0.93382135    -0.11400
C405        C  0.16067052  0.20748677  0.91020628    -0.01400
C406        C  0.16111365  0.22442862  0.86866300    -0.06600
H407        H  0.10298952  0.23610278  0.85668888     0.05900
H408        H  0.17700759  0.20038528  0.92545860     0.17300
Br409      Br  0.12989897  0.20276291  0.75005794    -0.06300
Br410      Br  0.14812441  0.34055108  0.78263682    -0.03200
Br411      Br  0.08876533  0.20423332  0.94172183    -0.00400
Br412      Br  0.19068830  0.23347601  0.84076515    -0.04700
C413        C  0.87042538  0.21163981  0.23575070    -0.12100
C414        C  0.88798107  0.21057321  0.27133119     0.03300
C415        C  0.88675631  0.22863823  0.31122802    -0.12700
C416        C  0.86825476  0.24777694  0.31665088     0.18200
C417        C  0.85074303  0.24892715  0.28133575    -0.09700
C418        C  0.85200144  0.23107456  0.24116603    -0.02700
H419        H  0.90025318  0.22765423  0.33847985     0.04700
C420        C  0.86688619  0.26479526  0.36119690     0.20200
H421        H  0.83833162  0.23215611  0.21430344     0.09900
C422        C  0.87200464  0.29394688  0.36053872    -0.16000
C423        C  0.87227215  0.30985063  0.40345689     0.02900
C424        C  0.86732774  0.29639466  0.44764975    -0.11400
C425        C  0.86191901  0.26726662  0.44751255    -0.01400
C426        C  0.86167232  0.25155899  0.40511551    -0.06600
H427        H  0.87629612  0.30416225  0.32672129     0.05900
H428        H  0.85767968  0.25645420  0.48081433     0.09300
Br429      Br  0.82437446  0.27363544  0.28746401    -0.06300
Br430      Br  0.91469818  0.18623582  0.26665355    -0.03200
Br431      Br  0.88111293  0.34893829  0.40000180    -0.00400
Br432      Br  0.85388519  0.21201355  0.40910992    -0.04700
C433        C  0.86566008  0.19419045  0.94717232    -0.12100
C434        C  0.84529481  0.20013688  0.92007744     0.03300
C435        C  0.84607977  0.21939663  0.88141101    -0.12700
C436        C  0.86679012  0.23319610  0.86864711     0.18200
C437        C  0.88717394  0.22682541  0.89462143    -0.09700
C438        C  0.88649426  0.20755423  0.93312857    -0.02700
H439        H  0.83031542  0.22389355  0.86137287     0.04700
C440        C  0.86708865  0.25282826  0.82643921     0.20200
H441        H  0.90235889  0.20350702  0.95297191     0.09900
C442        C  0.86913128  0.28235964  0.83297443    -0.16000
C443        C  0.87012861  0.30099454  0.79319183     0.02900
C444        C  0.86950019  0.29006291  0.74570124    -0.11400
C445        C  0.86696935  0.26049191  0.73980297    -0.01400
C446        C  0.86563525  0.24211513  0.77925984    -0.06600
H447        H  0.87009629  0.29091684  0.86916837     0.05900
H448        H  0.86604134  0.25139163  0.70397820     0.09300
Br449      Br  0.91642903  0.24386640  0.87866644    -0.06300
Br450      Br  0.81543357  0.18440349  0.93513841    -0.03200
Br451      Br  0.87325426  0.34076302  0.80609731    -0.00400
Br452      Br  0.86252885  0.20224666  0.76675242    -0.04700
C453        C  0.94195566  0.33349744  0.61146124    -0.12100
C454        C  0.95610891  0.31406686  0.58552298     0.03300
C455        C  0.98037419  0.31660145  0.58725894    -0.12700
C456        C  0.99103303  0.33835440  0.61358920     0.18200
C457        C  0.97718302  0.35809853  0.63822967    -0.09700
C458        C  0.95298347  0.35548720  0.63732035    -0.02700
H459        H  0.99106583  0.30150008  0.56778499     0.04700
C460        C  0.01666257  0.34011214  0.61466211     0.20200
H461        H  0.94278177  0.37091716  0.65712471     0.09900
C462        C  0.02812112  0.35790311  0.58192551    -0.16000
C463        C  0.05243725  0.35910724  0.58082870     0.02900
C464        C  0.06555611  0.34153111  0.61164729    -0.11400
C465        C  0.05408177  0.32410813  0.64492407    -0.01400
C466        C  0.02979175  0.32380381  0.64735726    -0.06600
H467        H  0.01809775  0.37081982  0.55711661     0.05900
H468        H  0.06407384  0.31111206  0.66968192     0.09300
Br469      Br  0.99067899  0.38885633  0.67380873    -0.06300
Br470      Br  0.94412608  0.28354260  0.54683571    -0.03200
Br471      Br  0.06696715  0.38422457  0.53559262    -0.00400
Br472      Br  0.01522891  0.30180494  0.69697247    -0.04700
C473        C  0.80869918  0.11470059  0.19148879    -0.12100
C474        C  0.78826698  0.10135943  0.17404104     0.03300
C475        C  0.76785390  0.10148960  0.20195482    -0.12700
C476        C  0.76721940  0.11417901  0.24779286     0.18200
C477        C  0.78801582  0.12524876  0.26695758    -0.09700
C478        C  0.80832531  0.12554303  0.23895807    -0.02700
H479        H  0.75217416  0.09208453  0.18736849     0.04700
C480        C  0.74457834  0.11694267  0.27388105     0.20200
H481        H  0.82367492  0.13549895  0.25396338     0.09900
C482        C  0.74077903  0.10201359  0.31696054    -0.16000
C483        C  0.71998934  0.10517356  0.34315027     0.02900
C484        C  0.70225819  0.12362525  0.32627401    -0.11400
C485        C  0.70594148  0.13787224  0.28230882    -0.01400
C486        C  0.72676439  0.13481302  0.25646024    -0.06600
H487        H  0.75417907  0.08791141  0.33049611     0.05900
H488        H  0.69287405  0.15239004  0.26865367     0.09300
Br489      Br  0.78929870  0.14200476  0.33002231    -0.06300
Br490      Br  0.78674497  0.08229379  0.11292746    -0.03200
Br491      Br  0.71687263  0.08296420  0.40079886    -0.00400
Br492      Br  0.73062127  0.15698719  0.19897742    -0.04700
C493        C  0.70499097  0.21688811  0.47012850    -0.12100
C494        C  0.71764599  0.23914567  0.44933470     0.03300
C495        C  0.73738574  0.24952217  0.47321850    -0.12700
C496        C  0.74454791  0.23767066  0.51737074     0.18200
C497        C  0.73170319  0.21561340  0.53809814    -0.09700
C498        C  0.71212886  0.20536150  0.51437416    -0.02700
H499        H  0.74741621  0.26640473  0.45701032     0.04700
C500        C  0.76577318  0.24810591  0.54084010     0.20200
H501        H  0.70266720  0.18786118  0.53007703     0.09900
C502        C  0.76403000  0.26983976  0.57501800    -0.16000
C503        C  0.78405092  0.28236034  0.59384179     0.02900
C504        C  0.80610295  0.27290222  0.57871149    -0.11400
C505        C  0.80778052  0.24962637  0.54749617    -0.01400
C506        C  0.78774508  0.23725975  0.52829314    -0.06600
H507        H  0.74709272  0.27785408  0.58546697     0.05900
H508        H  0.82466255  0.24257569  0.53494938     0.09300
Br509      Br  0.74074744  0.19814189  0.59770833    -0.06300
Br510      Br  0.70953742  0.25435888  0.38747686    -0.03200
Br511      Br  0.78047893  0.31337276  0.63784551    -0.00400
Br512      Br  0.79112844  0.20709037  0.48240841    -0.04700
C513        C  0.56626957  0.17417583  0.39697830    -0.12100
C514        C  0.55353353  0.15248293  0.41995835     0.03300
C515        C  0.52917219  0.15323331  0.41991958    -0.12700
C516        C  0.51691452  0.17496077  0.39628696     0.18200
C517        C  0.52965041  0.19708322  0.37442507    -0.09700
C518        C  0.55406090  0.19666320  0.37536215    -0.02700
H519        H  0.51968368  0.13648611  0.43798435     0.04700
C520        C  0.49099263  0.17381173  0.39421441     0.20200
H521        H  0.56356179  0.21350664  0.35757235     0.09900
C522        C  0.47773865  0.19597759  0.41395360    -0.16000
C523        C  0.45335527  0.19586005  0.41158643     0.02900
C524        C  0.44154546  0.17261153  0.39016062    -0.11400
C525        C  0.45494888  0.15016810  0.37150332    -0.01400
C526        C  0.47927681  0.15071260  0.37291649    -0.06600
H527        H  0.48647026  0.21366924  0.43110491     0.05900
H528        H  0.44650141  0.13225052  0.35444197     0.09300
Br529      Br  0.51466667  0.22739371  0.34010928    -0.06300
Br530      Br  0.56845610  0.12183617  0.45355639    -0.03200
Br531      Br  0.43780977  0.22819491  0.43893687    -0.00400
Br532      Br  0.49557755  0.11997700  0.34254706    -0.04700
C533        C  0.20084865  0.12699522  0.17452373    -0.12100
C534        C  0.20875492  0.14757696  0.20783560     0.03300
C535        C  0.22988892  0.14375387  0.23211988    -0.12700
C536        C  0.24384792  0.11993353  0.22343397     0.18200
C537        C  0.23620218  0.09942726  0.19003071    -0.09700
C538        C  0.21491869  0.10310951  0.16571622    -0.02700
H539        H  0.23582330  0.15992962  0.25705980     0.04700
C540        C  0.26639783  0.11745871  0.24941899     0.20200
H541        H  0.20938759  0.08732103  0.13970733     0.09900
C542        C  0.26667335  0.10697111  0.29666220    -0.16000
C543        C  0.28696952  0.10778357  0.32481985     0.02900
C544        C  0.30765976  0.11988043  0.30593318    -0.11400
C545        C  0.30748593  0.12897392  0.25751638    -0.01400
C546        C  0.28718364  0.12788011  0.22948799    -0.06600
H547        H  0.25078980  0.09868502  0.31215913     0.05900
H548        H  0.32294126  0.13823704  0.24180523     0.09300
Br549      Br  0.25443769  0.06631933  0.17653617    -0.06300
Br550      Br  0.19311888  0.18312759  0.21722252    -0.03200
Br551      Br  0.28465204  0.09205728  0.38857654    -0.00400
Br552      Br  0.28834762  0.14235358  0.16494884    -0.04700
C553        C  0.20059144  0.28427976  0.53641627    -0.12100
C554        C  0.19791506  0.26397197  0.49936005     0.03300
C555        C  0.21750728  0.25075962  0.47998570    -0.12700
C556        C  0.23982565  0.25695160  0.49733364     0.18200
C557        C  0.24247241  0.27646083  0.53537309    -0.09700
C558        C  0.22294419  0.29001691  0.55438857    -0.02700
H559        H  0.21537741  0.23595606  0.45039573     0.04700
C560        C  0.26003416  0.24305605  0.47468731     0.20200
H561        H  0.22528728  0.30559648  0.58273421     0.09900
C562        C  0.27697104  0.25955261  0.45136600    -0.16000
C563        C  0.29658790  0.24689090  0.43051389     0.02900
C564        C  0.29912728  0.21717873  0.43218673    -0.11400
C565        C  0.28153907  0.20080992  0.45374640    -0.01400
C566        C  0.26229812  0.21340079  0.47513430    -0.06600
H567        H  0.27498363  0.28237010  0.44974540     0.05900
H568        H  0.28318383  0.17797005  0.45612798     0.09300
Br569      Br  0.27225946  0.28537723  0.56265759    -0.06300
Br570      Br  0.16852851  0.25497019  0.47024920    -0.03200
Br571      Br  0.31874689  0.27107864  0.39936578    -0.00400
Br572      Br  0.24051814  0.18896699  0.50713043    -0.04700
C573        C  0.36934517  0.28790383  0.75747277    -0.12100
C574        C  0.37711101  0.29696989  0.71152511     0.03300
C575        C  0.37523481  0.27870971  0.67170937    -0.12700
C576        C  0.36561281  0.25151062  0.67627171     0.18200
C577        C  0.35766799  0.24253537  0.72163228    -0.09700
C578        C  0.35942348  0.26063508  0.76132643    -0.02700
H579        H  0.38141620  0.28574954  0.63679209     0.04700
C580        C  0.36477709  0.23258700  0.63358404     0.20200
H581        H  0.35322099  0.25290663  0.79577495     0.09900
C582        C  0.38568241  0.22230194  0.61419102    -0.16000
C583        C  0.38578772  0.20578244  0.57216439     0.02900
C584        C  0.36466535  0.19928589  0.54872277    -0.11400
C585        C  0.34369366  0.20874601  0.56926487    -0.01400
C586        C  0.34362178  0.22545033  0.61102040    -0.06600
H587        H  0.40201349  0.22741527  0.63158976     0.05900
H588        H  0.32733048  0.20447969  0.55129594     0.09300
Br589      Br  0.34532233  0.20522689  0.73197024    -0.06300
Br590      Br  0.39061515  0.33352946  0.69977746    -0.03200
Br591      Br  0.41519196  0.19213123  0.54918989    -0.00400
Br592      Br  0.31434022  0.23974909  0.63364947    -0.04700
C593        C  0.37481045  0.21478154  0.25657270    -0.12100
C594        C  0.39064463  0.23747538  0.25331690     0.03300
C595        C  0.39089488  0.25479802  0.21229364    -0.12700
C596        C  0.37538647  0.25006048  0.17405875     0.18200
C597        C  0.36016342  0.22660186  0.17642355    -0.09700
C598        C  0.35994949  0.20920696  0.21755206    -0.02700
H599        H  0.40298981  0.27236546  0.21056102     0.04700
C600        C  0.37539965  0.26982794  0.13222788     0.20200
H601        H  0.34784045  0.19165351  0.21947799     0.09900
C602        C  0.39455706  0.27035723  0.10107933    -0.16000
C603        C  0.39469029  0.28766026  0.05991581     0.02900
C604        C  0.37510254  0.30495621  0.04892377    -0.11400
C605        C  0.35670150  0.30577176  0.08236260    -0.01400
C606        C  0.35677303  0.28856781  0.12357603    -0.06600
H607        H  0.40935316  0.25673414  0.10833551     0.05900
H608        H  0.34166808  0.31908401  0.07567259     0.09300
Br609      Br  0.33960589  0.21735240  0.12414742    -0.06300
Br610      Br  0.41250776  0.24534083  0.30387795    -0.03200
Br611      Br  0.42230964  0.28607300  0.02089802    -0.00400
Br612      Br  0.33108251  0.29148660  0.16733289    -0.04700
C613        C  0.20626903  0.22003813  0.04928424    -0.12100
C614        C  0.22887897  0.20970725  0.05932712     0.03300
C615        C  0.24803789  0.22233186  0.03759709    -0.12700
C616        C  0.24535877  0.24565869  0.00690913     0.18200
C617        C  0.22298935  0.25668835  0.99818310    -0.09700
C618        C  0.20368725  0.24386190  0.01935907    -0.02700
H619        H  0.26525822  0.21389423  0.04473676     0.04700
C620        C  0.26631930  0.25842893  0.98569026     0.20200
H621        H  0.18651112  0.25189447  0.01068440     0.09900
C622        C  0.26923354  0.25879669  0.93534958    -0.16000
C623        C  0.28898361  0.27116218  0.91482188     0.02900
C624        C  0.30639891  0.28211139  0.94504663    -0.11400
C625        C  0.30379237  0.28097507  0.99512875    -0.01400
C626        C  0.28380768  0.26969070  0.01562514    -0.06600
H627        H  0.25592299  0.24994621  0.91206896     0.05900
H628        H  0.31687191  0.29029869  0.01838886     0.09300
Br629      Br  0.21781091  0.28916595  0.95790784    -0.06300
Br630      Br  0.23523434  0.17872793  0.10242334    -0.03200
Br631      Br  0.29134873  0.27344321  0.84596308    -0.00400
Br632      Br  0.28042029  0.27240877  0.08437324    -0.04700
C633        C  0.20322261  0.38343083  0.67005763    -0.12100
C634        C  0.22403956  0.39412126  0.64965087     0.03300
C635        C  0.24424355  0.39598197  0.67789619    -0.12700
C636        C  0.24426260  0.38756327  0.72638770     0.18200
C637        C  0.22339722  0.37844522  0.74749314    -0.09700
C638        C  0.20323913  0.37655060  0.71953372    -0.02700
H639        H  0.26025648  0.40329276  0.66157432     0.04700
C640        C  0.26647190  0.38587639  0.75327661     0.20200
H641        H  0.18767551  0.36857356  0.73650980     0.09900
C642        C  0.27096023  0.40467835  0.79152727    -0.16000
C643        C  0.29105224  0.40176615  0.81991624     0.02900
C644        C  0.30687161  0.37962954  0.81018355    -0.11400
C645        C  0.30269801  0.36159089  0.77075925    -0.01400
C646        C  0.28274952  0.36448602  0.74254289    -0.06600
H647        H  0.25867178  0.42146312  0.79956394     0.05900
H648        H  0.31467824  0.34446206  0.76270984     0.09300
Br649      Br  0.22192908  0.36630651  0.81352540    -0.06300
Br650      Br  0.22663493  0.40637499  0.58385215    -0.03200
Br651      Br  0.29665751  0.42927769  0.86960061    -0.00400
Br652      Br  0.27792182  0.33757448  0.69147863    -0.04700
C653        C  0.70172794  0.27798381  0.96144305    -0.12100
C654        C  0.72390078  0.27828634  0.93993472     0.03300
C655        C  0.74232165  0.26407826  0.96219774    -0.12700
C656        C  0.73893059  0.24951861  0.00563182     0.18200
C657        C  0.71669502  0.24848683  0.02646559    -0.09700
C658        C  0.69824765  0.26260758  0.00421536    -0.02700
H659        H  0.75936896  0.26433782  0.94559309     0.04700
C660        C  0.75873365  0.23474455  0.02766646     0.20200
H661        H  0.68136534  0.26260571  0.02155691     0.09900
C662        C  0.77586747  0.25039556  0.05194857    -0.16000
C663        C  0.79582279  0.23702626  0.06992763     0.02900
C664        C  0.79866633  0.20758042  0.06338370    -0.11400
C665        C  0.78085434  0.19195029  0.04091280    -0.01400
C666        C  0.76119013  0.20531751  0.02258105    -0.06600
H667        H  0.77382211  0.27308347  0.05631687     0.05900
H668        H  0.78273750  0.16934610  0.03510359     0.09300
Br669      Br  0.71103091  0.22886515  0.08593148    -0.06300
Br670      Br  0.72977021  0.29704928  0.87971937    -0.03200
Br671      Br  0.81808314  0.25977887  0.10404830    -0.00400
Br672      Br  0.73897577  0.18279464  0.98783890    -0.04700
C673        C  0.70092847  0.37367379  0.81507742    -0.12100
C674        C  0.70503439  0.35637961  0.77420227     0.03300
C675        C  0.72451442  0.36112243  0.74524340    -0.12700
C676        C  0.74034961  0.38268187  0.75625343     0.18200
C677        C  0.73600231  0.40052156  0.79602193    -0.09700
C678        C  0.71653425  0.39577945  0.82528913    -0.02700
H679        H  0.72790215  0.34706662  0.71508286     0.04700
C680        C  0.76229958  0.38410852  0.72851866     0.20200
H681        H  0.71359817  0.40940213  0.85618458     0.09900
C682        C  0.76183978  0.39178921  0.67959376    -0.16000
C683        C  0.78192523  0.38976919  0.65110801     0.02900
C684        C  0.80296903  0.38018118  0.67185289    -0.11400
C685        C  0.80346878  0.37350536  0.72118054    -0.01400
C686        C  0.78334390  0.37482088  0.74916457    -0.06600
H687        H  0.74565035  0.39857146  0.66323210     0.05900
H688        H  0.81924896  0.36527467  0.73739301     0.09300
Br689      Br  0.75622497  0.43151908  0.81155442    -0.06300
Br690      Br  0.68632229  0.32402585  0.75844138    -0.03200
Br691      Br  0.77950718  0.39995333  0.58424739    -0.00400
Br692      Br  0.78496859  0.36051691  0.81389387    -0.04700
C693        C  0.63542711  0.19621022  0.56754987    -0.12100
C694        C  0.61467656  0.20977922  0.58264747     0.03300
C695        C  0.61431816  0.22538636  0.62567748    -0.12700
C696        C  0.63423366  0.22777408  0.65457145     0.18200
C697        C  0.65445270  0.21283574  0.64137797    -0.09700
C698        C  0.65490334  0.19718472  0.59840038    -0.02700
H699        H  0.59850443  0.23620851  0.63625782     0.04700
C700        C  0.63361085  0.24632621  0.69782422     0.20200
H701        H  0.67097463  0.18698279  0.58803563     0.09900
C702        C  0.63298030  0.23406929  0.74374163    -0.16000
C703        C  0.63222117  0.25090950  0.78537022     0.02900
C704        C  0.63236202  0.28095227  0.78156798    -0.11400
C705        C  0.63232028  0.29306791  0.73520241    -0.01400
C706        C  0.63307783  0.27608549  0.69369545    -0.06600
H707        H  0.63286237  0.21117796  0.74716974     0.05900
H708        H  0.63228880  0.31591162  0.73110264     0.09300
Br709      Br  0.68239362  0.21480536  0.67913304    -0.06300
Br710      Br  0.58609832  0.20797388  0.54676656    -0.03200
Br711      Br  0.62960428  0.23097603  0.84556257    -0.00400
Br712      Br  0.63425513  0.29445220  0.63203730    -0.04700
C713        C  0.63862195  0.31245485  0.07053285    -0.12100
C714        C  0.61744053  0.30311392  0.09094469     0.03300
C715        C  0.61765642  0.28668866  0.13308212    -0.12700
C716        C  0.63862018  0.27993615  0.15623351     0.18200
C717        C  0.65950826  0.29124340  0.13841493    -0.09700
C718        C  0.65940771  0.30721048  0.09592286    -0.02700
H719        H  0.60139156  0.27883795  0.14758932     0.04700
C720        C  0.63849322  0.26047133  0.19810011     0.20200
H721        H  0.67592281  0.31419896  0.08136185     0.09900
C722        C  0.63882809  0.23106276  0.19028902    -0.16000
C723        C  0.63903550  0.21195962  0.22910353     0.02900
C724        C  0.63859478  0.22231805  0.27699835    -0.11400
C725        C  0.63845996  0.25192007  0.28432322    -0.01400
C726        C  0.63847000  0.27085574  0.24554114    -0.06600
H727        H  0.63926613  0.22294661  0.15371856     0.05900
H728        H  0.63816029  0.26053269  0.32055962     0.09300
Br729      Br  0.68866964  0.28441434  0.16998969    -0.06300
Br730      Br  0.58771177  0.31263763  0.06398761    -0.03200
Br731      Br  0.64142918  0.17233278  0.21395031    -0.00400
Br732      Br  0.63853121  0.31077940  0.25891094    -0.04700
C733        C  0.56567025  0.33700125  0.89786317    -0.12100
C734        C  0.55180454  0.31524669  0.91810700     0.03300
C735        C  0.52765951  0.31645250  0.91364828    -0.12700
C736        C  0.51681867  0.33833950  0.88799010     0.18200
C737        C  0.53043776  0.36007995  0.86792137    -0.09700
C738        C  0.55458136  0.35943199  0.87341117    -0.02700
H739        H  0.51720068  0.29991419  0.92983542     0.04700
C740        C  0.49124182  0.33819974  0.88367595     0.20200
H741        H  0.56474899  0.37613858  0.85696552     0.09900
C742        C  0.47846732  0.36017967  0.90497699    -0.16000
C743        C  0.45421178  0.36014169  0.90367969     0.02900
C744        C  0.44229617  0.33748252  0.88138935    -0.11400
C745        C  0.45511195  0.31530285  0.86056480    -0.01400
C746        C  0.47940123  0.31564386  0.86112730    -0.06600
H747        H  0.48744015  0.37728447  0.92326605     0.05900
H748        H  0.44620659  0.29792897  0.84287718     0.09300
Br749      Br  0.51709428  0.39013538  0.83022435    -0.06300
Br750      Br  0.56400755  0.28297603  0.95206379    -0.03200
Br751      Br  0.43855441  0.39084030  0.93543123    -0.00400
Br752      Br  0.49558123  0.28541438  0.82902265    -0.04700
C753        C  0.13221180  0.57940221  0.45121200    -0.12100
C754        C  0.13552728  0.57378559  0.50114037     0.03300
C755        C  0.13384742  0.54595838  0.51867997    -0.12700
C756        C  0.12829603  0.52331199  0.48804601     0.18200
C757        C  0.12242671  0.52928959  0.43967766    -0.09700
C758        C  0.12474174  0.55693086  0.42156302    -0.02700
H759        H  0.13758891  0.54184214  0.55636912     0.04700
C760        C  0.13028299  0.49364408  0.50638903     0.20200
H761        H  0.12123190  0.56062445  0.38367688     0.09900
C762        C  0.11647873  0.48443324  0.54519933    -0.16000
C763        C  0.11867352  0.45676236  0.56385116     0.02900
C764        C  0.13474152  0.43755566  0.54310392    -0.11400
C765        C  0.14870235  0.44713039  0.50483333    -0.01400
C766        C  0.14695850  0.47483585  0.48724888    -0.06600
H767        H  0.10395843  0.49883124  0.56104724     0.05900
H768        H  0.16171663  0.43323319  0.48937484     0.09300
Br769      Br  0.11104145  0.50036147  0.39705903    -0.06300
Br770      Br  0.14217692  0.60266376  0.54821789    -0.03200
Br771      Br  0.09882288  0.44642104  0.61654893    -0.00400
Br772      Br  0.16921027  0.48649942  0.43964473    -0.04700
C773        C  0.87710307  0.42740779  0.54297260    -0.12100
C774        C  0.86791180  0.43604121  0.49751688     0.03300
C775        C  0.87175223  0.46355941  0.48036284    -0.12700
C776        C  0.88435428  0.48338792  0.50717201     0.18200
C777        C  0.89427632  0.47487062  0.55132591    -0.09700
C778        C  0.89085191  0.44709239  0.56860404    -0.02700
H779        H  0.86381125  0.47003785  0.44664383     0.04700
C780        C  0.88315161  0.51364457  0.49201085     0.20200
H781        H  0.89816131  0.44133394  0.60325401     0.09900
C782        C  0.86441007  0.52981390  0.50867672    -0.16000
C783        C  0.86008511  0.55707862  0.49098512     0.02900
C784        C  0.87494549  0.56922453  0.45585003    -0.11400
C785        C  0.89394145  0.55301511  0.43930327    -0.01400
C786        C  0.89808432  0.52544215  0.45709757    -0.06600
H787        H  0.85244278  0.52064064  0.53445891     0.05900
H788        H  0.90557708  0.56177775  0.41251290     0.09300
Br789      Br  0.91165301  0.50101313  0.59007910    -0.06300
Br790      Br  0.84893516  0.41262664  0.45651966    -0.03200
Br791      Br  0.83208968  0.57500714  0.51351583    -0.00400
Br792      Br  0.92409993  0.50446067  0.43270813    -0.04700
C793        C  0.94323753  0.66867654  0.39326899    -0.12100
C794        C  0.95636149  0.65976941  0.35317117     0.03300
C795        C  0.98055310  0.66230911  0.35409863    -0.12700
C796        C  0.99185686  0.67376244  0.39446743     0.18200
C797        C  0.97873588  0.68314531  0.43412126    -0.09700
C798        C  0.95454790  0.68071674  0.43313666    -0.02700
H799        H  0.99061482  0.65542002  0.32320432     0.04700
C800        C  0.01740279  0.67497007  0.39498078     0.20200
H801        H  0.94452809  0.68805977  0.46370147     0.09900
C802        C  0.02868838  0.70078170  0.38648865    -0.16000
C803        C  0.05298836  0.70219221  0.38470069     0.02900
C804        C  0.06633165  0.67720362  0.39155719    -0.11400
C805        C  0.05473677  0.65157666  0.40106690    -0.01400
C806        C  0.03056235  0.65031926  0.40272312    -0.06600
H807        H  0.01849446  0.71981106  0.38037578     0.05900
H808        H  0.06451203  0.63220497  0.40694168     0.09300
Br809      Br  0.99319152  0.69870542  0.49060148    -0.06300
Br810      Br  0.94202660  0.64608527  0.29509616    -0.03200
Br811      Br  0.06630885  0.73852514  0.36997814    -0.00400
Br812      Br  0.01620567  0.61444446  0.41581648    -0.04700
C813        C  0.87973365  0.06650359  0.05485305    -0.12100
C814        C  0.87219560  0.04161313  0.07814099     0.03300
C815        C  0.87651984  0.01515175  0.05714923    -0.12700
C816        C  0.88853272  0.01279653  0.01323363     0.18200
C817        C  0.89673480  0.03770265  0.99078829    -0.09700
C818        C  0.89214572  0.06423239  0.01149020    -0.02700
H819        H  0.86950164  0.99633041  0.07416142     0.04700
C820        C  0.88954371  0.98465131  0.98908662     0.20200
H821        H  0.89803884  0.08325114  0.99329575     0.09900
C822        C  0.87874524  0.98136277  0.94397087    -0.16000
C823        C  0.87579906  0.95453866  0.92330162     0.02900
C824        C  0.88308880  0.93015811  0.94863748    -0.11400
C825        C  0.89476604  0.93346473  0.99279839    -0.01400
C826        C  0.89834777  0.96040860  0.01273003    -0.06600
H827        H  0.87153202  0.99968797  0.92567042     0.05900
H828        H  0.90076718  0.91492461  0.01233126     0.09300
Br829      Br  0.91417046  0.03670555  0.93184940    -0.06300
Br830      Br  0.85363726  0.04259875  0.13564536    -0.03200
Br831      Br  0.85949153  0.95252116  0.86291404    -0.00400
Br832      Br  0.91526999  0.96297128  0.07229004    -0.04700
C833        C  0.87173835  0.78206158  0.77356512    -0.12100
C834        C  0.87918846  0.79139106  0.72744799     0.03300
C835        C  0.87836274  0.77281710  0.68796890    -0.12700
C836        C  0.87058385  0.74482077  0.69311392     0.18200
C837        C  0.86389612  0.73518961  0.73899713    -0.09700
C838        C  0.86422117  0.75375708  0.77835630    -0.02700
H839        H  0.88387257  0.78026834  0.65284330     0.04700
C840        C  0.87001264  0.72599418  0.65021346     0.20200
H841        H  0.85893182  0.74567473  0.81319701     0.09900
C842        C  0.89098278  0.71802227  0.62822491    -0.16000
C843        C  0.89113274  0.70180068  0.58583375     0.02900
C844        C  0.86994085  0.69333532  0.56439964    -0.11400
C845        C  0.84898823  0.70055943  0.58756678    -0.01400
C846        C  0.84886946  0.71689759  0.62974233    -0.06600
H847        H  0.90734815  0.72473116  0.64391629     0.05900
H848        H  0.83248274  0.69488011  0.57132714     0.09300
Br849      Br  0.85536053  0.69643359  0.75025899    -0.06300
Br850      Br  0.89097955  0.82875943  0.71469084    -0.03200
Br851      Br  0.92081160  0.69150276  0.55964945    -0.00400
Br852      Br  0.81934055  0.72807546  0.65584470    -0.04700
C853        C  0.87312438  0.80495093  0.06253904    -0.12100
C854        C  0.89428385  0.79675618  0.08428331     0.03300
C855        C  0.89413573  0.77917622  0.12516668    -0.12700
C856        C  0.87319308  0.76825004  0.14359556     0.18200
C857        C  0.85209091  0.77624311  0.12124918    -0.09700
C858        C  0.85220653  0.79488134  0.08205869    -0.02700
H859        H  0.91047061  0.77372131  0.14226187     0.04700
C860        C  0.87345104  0.74969964  0.18721729     0.20200
H861        H  0.83585908  0.79990328  0.06457413     0.09900
C862        C  0.86027923  0.75782458  0.22744802    -0.16000
C863        C  0.85933896  0.74108027  0.26899957     0.02900
C864        C  0.87273437  0.71586404  0.27213554    -0.11400
C865        C  0.88599694  0.70772648  0.23177112    -0.01400
C866        C  0.88633985  0.72420286  0.18959861    -0.06600
H867        H  0.85031775  0.77734140  0.22630242     0.05900
H868        H  0.89626087  0.68844943  0.23294687     0.09300
Br869      Br  0.82267107  0.76024146  0.13931589    -0.06300
Br870      Br  0.92378008  0.80889674  0.05953078    -0.03200
Br871      Br  0.83818595  0.75363059  0.31832191    -0.00400
Br872      Br  0.90394866  0.71016615  0.13586630    -0.04700
C873        C  0.13192928  0.07486860  0.03906529    -0.12100
C874        C  0.11416654  0.05670154  0.05573700     0.03300
C875        C  0.11182620  0.02936208  0.03595141    -0.12700
C876        C  0.12719111  0.01950461  0.00018758     0.18200
C877        C  0.14471072  0.03780847  0.98333038    -0.09700
C878        C  0.14679674  0.06507905  0.00241570    -0.02700
H879        H  0.09813930  0.01559611  0.04891314     0.04700
C880        C  0.12573029  0.98983046  0.98212965     0.20200
H881        H  0.16072028  0.07846980  0.98935634     0.09900
C882        C  0.12158993  0.98477421  0.93294470    -0.16000
C883        C  0.12413785  0.95757911  0.91299477     0.02900
C884        C  0.13085134  0.93452268  0.94279189    -0.11400
C885        C  0.13323813  0.93949509  0.99271031    -0.01400
C886        C  0.13078840  0.96666898  0.01233847    -0.06600
H887        H  0.11731909  0.00240014  0.90949852     0.05900
H888        H  0.13794094  0.92233265  0.01675701     0.09300
Br889      Br  0.16733679  0.02616661  0.93635979    -0.06300
Br890      Br  0.09218866  0.06827634  0.10388815    -0.03200
Br891      Br  0.11913616  0.95441356  0.84466044    -0.00400
Br892      Br  0.13640162  0.97119380  0.08016202    -0.04700
C893        C  0.14060161  0.79011993  0.75685550    -0.12100
C894        C  0.14141389  0.80157266  0.70977488     0.03300
C895        C  0.14251039  0.78332750  0.66995689    -0.12700
C896        C  0.14279999  0.75382436  0.67613636     0.18200
C897        C  0.14237823  0.74237037  0.72273144    -0.09700
C898        C  0.14130081  0.76042049  0.76250430    -0.02700
H899        H  0.14312809  0.79216785  0.63392013     0.04700
C900        C  0.14356672  0.73530614  0.63344021     0.20200
H901        H  0.14073209  0.75102327  0.79812398     0.09900
C902        C  0.16508632  0.72875780  0.61282878    -0.16000
C903        C  0.16639318  0.71285664  0.57037301     0.02900
C904        C  0.14572062  0.70344584  0.54762374    -0.11400
C905        C  0.12422493  0.70932033  0.56949340    -0.01400
C906        C  0.12306296  0.72493797  0.61228727    -0.06600
H907        H  0.18090202  0.73668668  0.62923848     0.05900
H908        H  0.10823320  0.70233042  0.55260625     0.09300
Br909      Br  0.14310958  0.70219089  0.73356166    -0.06300
Br910      Br  0.14208433  0.84157718  0.69698787    -0.03200
Br911      Br  0.19688180  0.70730272  0.54378380    -0.00400
Br912      Br  0.09313770  0.73248018  0.63992921    -0.04700
C913        C  0.13636468  0.80764158  0.04622185    -0.12100
C914        C  0.11464807  0.79844777  0.06415472     0.03300
C915        C  0.11375534  0.78107698  0.10511338    -0.12700
C916        C  0.13421471  0.77228800  0.12827024     0.18200
C917        C  0.15583119  0.78145104  0.11061861    -0.09700
C918        C  0.15677090  0.79918475  0.07029074    -0.02700
H919        H  0.09704839  0.77430026  0.11888435     0.04700
C920        C  0.13278561  0.75455221  0.17206866     0.20200
H921        H  0.17363457  0.80523093  0.05631765     0.09900
C922        C  0.13361775  0.72491372  0.16820778    -0.16000
C923        C  0.13356700  0.70774272  0.20952607     0.02900
C924        C  0.13271403  0.72037009  0.25582365    -0.11400
C925        C  0.13163790  0.75015198  0.25913968    -0.01400
C926        C  0.13159788  0.76713769  0.21787224    -0.06600
H927        H  0.13475770  0.71514593  0.13291997     0.05900
H928        H  0.13084210  0.76037746  0.29409418     0.09300
Br929      Br  0.18451640  0.76942981  0.13961971    -0.06300
Br930      Br  0.08567049  0.80919023  0.03479716    -0.03200
Br931      Br  0.13625804  0.66753936  0.19989349    -0.00400
Br932      Br  0.13032772  0.80756681  0.22549359    -0.04700
C933        C  0.94358408  0.82823859  0.89124892    -0.12100
C934        C  0.95596525  0.80737866  0.86543875     0.03300
C935        C  0.98026113  0.80855498  0.86364008    -0.12700
C936        C  0.99250371  0.83009179  0.88772519     0.18200
C937        C  0.98005959  0.85066861  0.91409079    -0.09700
C938        C  0.95581661  0.84969898  0.91536401    -0.02700
H939        H  0.98964628  0.79291732  0.84257854     0.04700
C940        C  0.01812459  0.83145581  0.88355224     0.20200
H941        H  0.94642460  0.86584597  0.93530915     0.09900
C942        C  0.02834290  0.85517984  0.86176273    -0.16000
C943        C  0.05250840  0.85784726  0.85852048     0.02900
C944        C  0.06704561  0.83597236  0.87648667    -0.11400
C945        C  0.05659805  0.81193894  0.89735639    -0.01400
C946        C  0.03246566  0.80961762  0.90119132    -0.06600
H947        H  0.01737498  0.87190860  0.84751075     0.05900
H948        H  0.06724095  0.79496009  0.91177270     0.09300
Br949      Br  0.99530359  0.88023297  0.94971047    -0.06300
Br950      Br  0.94053269  0.77839645  0.82877214    -0.03200
Br951      Br  0.06390218  0.89182013  0.82850157    -0.00400
Br952      Br  0.02006295  0.77682951  0.93300766    -0.04700
C953        C  0.37267088  0.43239983  0.94383135    -0.12100
C954        C  0.38298048  0.43798425  0.98908429     0.03300
C955        C  0.38354468  0.46572754  0.00710645    -0.12700
C956        C  0.37309400  0.48817510  0.98185915     0.18200
C957        C  0.36279661  0.48264386  0.93660421    -0.09700
C958        C  0.36302636  0.45505761  0.91765581    -0.02700
H959        H  0.39163701  0.46971144  0.04177151     0.04700
C960        C  0.37255070  0.51689823  0.00407686     0.20200
H961        H  0.35446040  0.45101846  0.88349523     0.09900
C962        C  0.38379725  0.53957428  0.98110719    -0.16000
C963        C  0.38288876  0.56702639  0.00040452     0.02900
C964        C  0.37129988  0.57200589  0.04442327    -0.11400
C965        C  0.36071307  0.54920329  0.06822026    -0.01400
C966        C  0.36087195  0.52195712  0.04800408    -0.06600
H967        H  0.39293862  0.53599150  0.94749946     0.05900
H968        H  0.35105239  0.55293214  0.10116544     0.09300
Br969      Br  0.34632195  0.51140746  0.90140659    -0.06300
Br970      Br  0.39633779  0.40862460  0.02825275    -0.03200
Br971      Br  0.39762317  0.59709329  0.96518239    -0.00400
Br972      Br  0.34291830  0.49304376  0.07924186    -0.04700
C973        C  0.20599033  0.78689430  0.93332124    -0.12100
C974        C  0.22856806  0.79686763  0.92296775     0.03300
C975        C  0.24767573  0.78366916  0.94381431    -0.12700
C976        C  0.24500674  0.75918814  0.97169642     0.18200
C977        C  0.22268381  0.74759788  0.97839431    -0.09700
C978        C  0.20333119  0.76172636  0.95977319    -0.02700
H979        H  0.26481904  0.79251071  0.93795722     0.04700
C980        C  0.26583125  0.74638321  0.99339325     0.20200
H981        H  0.18615325  0.75350967  0.96748211     0.09900
C982        C  0.26696108  0.74289098  0.04370052    -0.16000
C983        C  0.28636762  0.73025517  0.06501306     0.02900
C984        C  0.30524237  0.72242594  0.03598161    -0.11400
C985        C  0.30464436  0.72712957  0.98624932    -0.01400
C986        C  0.28496474  0.73852639  0.96458330    -0.06600
H987        H  0.25254366  0.74946715  0.06621415     0.05900
H988        H  0.31902064  0.72027503  0.96380208     0.09300
Br989      Br  0.21765984  0.71256951  0.01207225    -0.06300
Br990      Br  0.23488207  0.82752361  0.87929467    -0.03200
Br991      Br  0.28645919  0.72363235  0.13327217    -0.00400
Br992      Br  0.28458853  0.74049813  0.89533157    -0.04700
C993        C  0.19747776  0.62562062  0.30079716    -0.12100
C994        C  0.20604308  0.64643535  0.26900192     0.03300
C995        C  0.22608799  0.64111597  0.24220911    -0.12700
C996        C  0.23819316  0.61547843  0.24700336     0.18200
C997        C  0.22968729  0.59455378  0.27857320    -0.09700
C998        C  0.20941560  0.59974676  0.30528795    -0.02700
H999        H  0.23288952  0.65760934  0.21896182     0.04700
C1000       C  0.26076082  0.61280741  0.22197261     0.20200
H1001       H  0.20315216  0.58376195  0.33013247     0.09900
C1002       C  0.28114406  0.61872868  0.24765895    -0.16000
C1003       C  0.30227322  0.62308859  0.22375808     0.02900
C1004       C  0.30317540  0.62185392  0.17259236    -0.11400
C1005       C  0.28288011  0.61382509  0.14749876    -0.01400
C1006       C  0.26186915  0.60936646  0.17173776    -0.06600
H1007       H  0.28036746  0.62133038  0.28645341     0.05900
H1008       H  0.28301264  0.61208015  0.10856584     0.09300
Br1009     Br  0.24535192  0.55896703  0.28657433    -0.06300
Br1010     Br  0.19292442  0.68385206  0.26528249    -0.03200
Br1011     Br  0.32858183  0.63138156  0.26417070    -0.00400
Br1012     Br  0.23478808  0.59967290  0.13484530    -0.04700
C1013       C  0.63670860  0.57262950  0.05476675    -0.12100
C1014       C  0.61915067  0.55354381  0.06916063     0.03300
C1015       C  0.61842937  0.52603429  0.04928410    -0.12700
C1016       C  0.63510213  0.51708847  0.01536080     0.18200
C1017       C  0.65277236  0.53599789  0.00176391    -0.09700
C1018       C  0.65334449  0.56337161  0.02102982    -0.02700
H1019       H  0.60485230  0.51155772  0.06033275     0.04700
C1020       C  0.63477241  0.48763628  0.99606314     0.20200
H1021       H  0.66723113  0.57743887  0.01002491     0.09900
C1022       C  0.62761022  0.48242948  0.94838468    -0.16000
C1023       C  0.62919545  0.45514449  0.92788430     0.02900
C1024       C  0.63815667  0.43225797  0.95546061    -0.11400
C1025       C  0.64480987  0.43781540  0.00362856    -0.01400
C1026       C  0.64333621  0.46497590  0.02365603    -0.06600
H1027       H  0.62118816  0.49985753  0.92667097     0.05900
H1028       H  0.65181876  0.42104890  0.02602658     0.09300
Br1029     Br  0.67719495  0.52498974  0.95849150    -0.06300
Br1030     Br  0.59521132  0.56430898  0.11365816    -0.03200
Br1031     Br  0.61929801  0.45129085  0.86206439    -0.00400
Br1032     Br  0.65467908  0.47045504  0.08811068    -0.04700
C1033       C  0.70149287  0.72446306  0.05444883    -0.12100
C1034       C  0.70014032  0.74722980  0.02142195     0.03300
C1035       C  0.72060683  0.75877877  0.00274661    -0.12700
C1036       C  0.74242028  0.74826784  0.01671571     0.18200
C1037       C  0.74381953  0.72709330  0.05212817    -0.09700
C1038       C  0.72349350  0.71525202  0.07037402    -0.02700
H1039       H  0.71953485  0.77588141  0.97674160     0.04700
C1040       C  0.76350441  0.76159548  0.99727702     0.20200
H1041       H  0.72493948  0.69822734  0.09646840     0.09900
C1042       C  0.76849013  0.78920562  0.01191522    -0.16000
C1043       C  0.78825833  0.80301923  0.99544675     0.02900
C1044       C  0.80348916  0.78916420  0.96291815    -0.11400
C1045       C  0.79864168  0.76124136  0.94863040    -0.01400
C1046       C  0.77864030  0.74745373  0.96530164    -0.06600
H1047       H  0.75704299  0.79993713  0.03706745     0.05900
H1048       H  0.81018482  0.75035532  0.92390503     0.09300
Br1049     Br  0.77302486  0.71411750  0.07744509    -0.06300
Br1050     Br  0.67131006  0.76276153  0.99824933    -0.03200
Br1051     Br  0.79382583  0.83998644  0.02223658    -0.00400
Br1052     Br  0.77231124  0.70982760  0.94251955    -0.04700
C1053       C  0.70190165  0.63277052  0.18434050    -0.12100
C1054       C  0.70949913  0.65454231  0.21563391     0.03300
C1055       C  0.73040775  0.65154545  0.24102840    -0.12700
C1056       C  0.74431398  0.62734436  0.23524998     0.18200
C1057       C  0.73709145  0.60592177  0.20317960    -0.09700
C1058       C  0.71605132  0.60876271  0.17793936    -0.02700
H1059       H  0.73613589  0.66848911  0.26468212     0.04700
C1060       C  0.76667110  0.62547158  0.26175310     0.20200
H1061       H  0.71074872  0.59219894  0.15313458     0.09900
C1062       C  0.76833139  0.60860435  0.30327578    -0.16000
C1063       C  0.78880685  0.60798684  0.33090282     0.02900
C1064       C  0.80804793  0.62483153  0.31734880    -0.11400
C1065       C  0.80650123  0.64079486  0.27452383    -0.01400
C1066       C  0.78613431  0.64117530  0.24689822    -0.06600
H1067       H  0.75352362  0.59605602  0.31448450     0.05900
H1068       H  0.82096613  0.65386226  0.26310607     0.09300
Br1069     Br  0.75595308  0.57309222  0.19148847    -0.06300
Br1070     Br  0.69335913  0.69007631  0.22126411    -0.03200
Br1071     Br  0.78959647  0.58293019  0.38538983    -0.00400
Br1072     Br  0.78560924  0.66351210  0.18908896    -0.04700
C1073       C  0.44028121  0.66625063  0.10772628    -0.12100
C1074       C  0.45380431  0.68260167  0.07557255     0.03300
C1075       C  0.47803608  0.68181307  0.07853285    -0.12700
C1076       C  0.48926293  0.66483672  0.11277622     0.18200
C1077       C  0.47592971  0.64839267  0.14475248    -0.09700
C1078       C  0.45164343  0.64905793  0.14183430    -0.02700
H1079       H  0.48825243  0.69437583  0.05363498     0.04700
C1080       C  0.51490483  0.66513571  0.11472855     0.20200
H1081       H  0.44159289  0.63655142  0.16707956     0.09900
C1082       C  0.52616712  0.68943952  0.13198591    -0.16000
C1083       C  0.55043356  0.69112861  0.13254027     0.02900
C1084       C  0.56386584  0.66809697  0.11548171    -0.11400
C1085       C  0.55249702  0.64367846  0.09854659    -0.01400
C1086       C  0.52820739  0.64221731  0.09748745    -0.06600
H1087       H  0.51598716  0.70717378  0.14516831     0.05900
H1088       H  0.56253974  0.62592742  0.08498679     0.09300
Br1089     Br  0.49011135  0.62559198  0.19397218    -0.06300
Br1090     Br  0.44062839  0.70523538  0.02498744    -0.03200
Br1091     Br  0.56403838  0.72482635  0.15944123    -0.00400
Br1092     Br  0.51392079  0.60920954  0.06993280    -0.04700
C1093       C  0.63567371  0.93485577  0.55515545    -0.12100
C1094       C  0.61525545  0.95037677  0.56545044     0.03300
C1095       C  0.61184614  0.97736817  0.54469441    -0.12700
C1096       C  0.62869412  0.98944932  0.51414233     0.18200
C1097       C  0.64952054  0.97437235  0.50598840    -0.09700
C1098       C  0.65256715  0.94726614  0.52539922    -0.02700
H1099       H  0.59598571  0.98894809  0.55233957     0.04700
C1100       C  0.62541221  0.01851103  0.49380365     0.20200
H1101       H  0.66863783  0.93601617  0.51810964     0.09900
C1102       C  0.62436052  0.04174811  0.52526077    -0.16000
C1103       C  0.62578439  0.06963007  0.50790820     0.02900
C1104       C  0.62884200  0.07476932  0.45787342    -0.11400
C1105       C  0.62753394  0.05154688  0.42614215    -0.01400
C1106       C  0.62556107  0.02370443  0.44363317    -0.06600
H1107       H  0.62338947  0.03816673  0.56380259     0.05900
H1108       H  0.62905676  0.05486315  0.38762535     0.09300
Br1109     Br  0.67525572  0.99066288  0.47174079    -0.06300
Br1110     Br  0.59120447  0.93520474  0.60569203    -0.03200
Br1111     Br  0.62328198  0.09949328  0.55491241    -0.00400
Br1112     Br  0.62354523  0.99338396  0.39761307    -0.04700
C1113       C  0.70671605  0.78725590  0.55126069    -0.12100
C1114       C  0.71089178  0.75852151  0.56191531     0.03300
C1115       C  0.73059004  0.74515796  0.54260962    -0.12700
C1116       C  0.74585555  0.76013323  0.51241590     0.18200
C1117       C  0.74138893  0.78859898  0.50127519    -0.09700
C1118       C  0.72223222  0.80199153  0.52133355    -0.02700
H1119       H  0.73405276  0.72313667  0.55115129     0.04700
C1120       C  0.76625170  0.74591709  0.49190688     0.20200
H1121       H  0.71906547  0.82402267  0.51217604     0.09900
C1122       C  0.76318914  0.72734694  0.45302533    -0.16000
C1123       C  0.78228696  0.71404505  0.43172649     0.02900
C1124       C  0.80481511  0.71919814  0.44991472    -0.11400
C1125       C  0.80784814  0.73869345  0.48768856    -0.01400
C1126       C  0.78875964  0.75200235  0.50878676    -0.06600
H1127       H  0.74589446  0.72335174  0.43907814     0.05900
H1128       H  0.82500014  0.74258692  0.50246129     0.09300
Br1129     Br  0.76036548  0.80972304  0.45714631    -0.06300
Br1130     Br  0.69105749  0.73732053  0.60411010    -0.03200
Br1131     Br  0.77660011  0.68980118  0.37723949    -0.00400
Br1132     Br  0.79417515  0.77761668  0.56146165    -0.04700
C1133       C  0.70400525  0.87706818  0.68784205    -0.12100
C1134       C  0.71120659  0.85546673  0.71990187     0.03300
C1135       C  0.73161868  0.85864743  0.74682216    -0.12700
C1136       C  0.74536711  0.88302529  0.74256116     0.18200
C1137       C  0.73846631  0.90444059  0.70999936    -0.09700
C1138       C  0.71796662  0.90130671  0.68286024    -0.02700
H1139       H  0.73709873  0.84164220  0.77064973     0.04700
C1140       C  0.76741626  0.88465302  0.77052039     0.20200
H1141       H  0.71282872  0.91793537  0.65806172     0.09900
C1142       C  0.78868464  0.88285814  0.74613316    -0.16000
C1143       C  0.80976892  0.88094117  0.77134052     0.02900
C1144       C  0.80987947  0.88059017  0.82254871    -0.11400
C1145       C  0.78852218  0.88366696  0.84674887    -0.01400
C1146       C  0.76749381  0.88553264  0.82130834    -0.06600
H1147       H  0.78883302  0.88215200  0.70703098     0.05900
H1148       H  0.78799212  0.88345433  0.88581977     0.09300
Br1149     Br  0.75624466  0.93849598  0.70228139    -0.06300
Br1150     Br  0.69509068  0.81996538  0.72534706    -0.03200
Br1151     Br  0.83746004  0.87883579  0.73278120    -0.00400
Br1152     Br  0.73921871  0.88878980  0.85751729    -0.04700
C1153       C  0.63528999  0.78506226  0.73244467    -0.12100
C1154       C  0.63108246  0.79513976  0.77986884     0.03300
C1155       C  0.63060791  0.77608116  0.81875741    -0.12700
C1156       C  0.63403486  0.74690673  0.81181041     0.18200
C1157       C  0.63754343  0.73666096  0.76477229    -0.09700
C1158       C  0.63836119  0.75559213  0.72589151    -0.02700
H1159       H  0.62775809  0.78412140  0.85487190     0.04700
C1160       C  0.63424492  0.72772462  0.85432024     0.20200
H1161       H  0.64116266  0.74700381  0.69013892     0.09900
C1162       C  0.61347138  0.72227264  0.87912111    -0.16000
C1163       C  0.61340776  0.70638240  0.92193537     0.02900
C1164       C  0.63454505  0.69572541  0.94090860    -0.11400
C1165       C  0.65511199  0.70008045  0.91446499    -0.01400
C1166       C  0.65514034  0.71608472  0.87199382    -0.06600
H1167       H  0.59725979  0.73088771  0.86553062     0.05900
H1168       H  0.67161492  0.69257111  0.92842618     0.09300
Br1169     Br  0.64053404  0.69683967  0.75176191    -0.06300
Br1170     Br  0.62621984  0.83442214  0.79523419    -0.03200
Br1171     Br  0.58390574  0.70000024  0.95240879    -0.00400
Br1172     Br  0.68451886  0.72353183  0.84183728    -0.04700
C1173       C  0.63215237  0.72288854  0.23211707    -0.12100
C1174       C  0.63437991  0.71266834  0.27990082     0.03300
C1175       C  0.63463737  0.73177815  0.31882334    -0.12700
C1176       C  0.63262174  0.76113955  0.31148999     0.18200
C1177       C  0.63011814  0.77138202  0.26418322    -0.09700
C1178       C  0.62994870  0.75241779  0.22518467    -0.02700
H1179       H  0.63673476  0.72370255  0.35512898     0.04700
C1180       C  0.63388078  0.78060968  0.35369934     0.20200
H1181       H  0.62798114  0.76090570  0.18912531     0.09900
C1182       C  0.65507045  0.79356023  0.36538486    -0.16000
C1183       C  0.65770661  0.80934728  0.40803359     0.02900
C1184       C  0.63877805  0.81233288  0.44049154    -0.11400
C1185       C  0.61719664  0.80055286  0.42693991    -0.01400
C1186       C  0.61467446  0.78493117  0.38414886    -0.06600
H1187       H  0.66992433  0.79050597  0.34194284     0.05900
H1188       H  0.60230787  0.80262897  0.45057479     0.09300
Br1189     Br  0.62659380  0.81111067  0.25130632    -0.06300
Br1190     Br  0.63848130  0.67323294  0.29484206    -0.03200
Br1191     Br  0.68821556  0.82408902  0.42043900    -0.00400
Br1192     Br  0.58481115  0.76918925  0.36909750    -0.04700
C1193       C  0.37689817  0.93275169  0.54780331    -0.12100
C1194       C  0.37296258  0.95667676  0.57744133     0.03300
C1195       C  0.37476385  0.98408682  0.55813375    -0.12700
C1196       C  0.38004369  0.98845798  0.50922924     0.18200
C1197       C  0.38523557  0.96469412  0.48026806    -0.09700
C1198       C  0.38357763  0.93724406  0.49955983    -0.02700
H1199       H  0.37079251  0.00214213  0.58085710     0.04700
C1200       C  0.37761380  0.01753348  0.48846200     0.20200
H1201       H  0.38679686  0.91924158  0.47620766     0.09900
C1202       C  0.39697709  0.03183270  0.46922252    -0.16000
C1203       C  0.39473270  0.05927117  0.44969473     0.02900
C1204       C  0.37295403  0.07300174  0.44995805    -0.11400
C1205       C  0.35375178  0.05884793  0.46967916    -0.01400
C1206       C  0.35582021  0.03134483  0.48812804    -0.06600
H1207       H  0.41388206  0.02167276  0.46957789     0.05900
H1208       H  0.33683039  0.06901342  0.46958815     0.09300
Br1209     Br  0.39288655  0.96838746  0.41323873    -0.06300
Br1210     Br  0.36230699  0.95358610  0.64281462    -0.03200
Br1211     Br  0.42195141  0.07783391  0.42545665    -0.00400
Br1212     Br  0.32796309  0.01299673  0.50997455    -0.04700
C1213       C  0.37266553  0.69279038  0.93015453    -0.12100
C1214       C  0.35613443  0.68972013  0.89252222     0.03300
C1215       C  0.35807385  0.70606984  0.85037564    -0.12700
C1216       C  0.37679271  0.72473066  0.84331555     0.18200
C1217       C  0.39426775  0.72599556  0.87894503    -0.09700
C1218       C  0.39199646  0.71042576  0.92168666    -0.02700
H1219       H  0.34456211  0.70460129  0.82326958     0.04700
C1220       C  0.37710234  0.74376649  0.80016756     0.20200
H1221       H  0.40518203  0.71297833  0.94909041     0.09900
C1222       C  0.37763635  0.77330573  0.80687671    -0.16000
C1223       C  0.37757234  0.79211427  0.76765338     0.02900
C1224       C  0.37644995  0.78153231  0.71985510    -0.11400
C1225       C  0.37562422  0.75188585  0.71334604    -0.01400
C1226       C  0.37607813  0.73314921  0.75266032    -0.06600
H1227       H  0.37792603  0.78186363  0.84312986     0.05900
H1228       H  0.37496475  0.74307017  0.67729924     0.09300
Br1229     Br  0.42177001  0.74856347  0.87119966    -0.06300
Br1230     Br  0.33036801  0.66391163  0.89543413    -0.03200
Br1231     Br  0.37808888  0.83185518  0.78295642    -0.00400
Br1232     Br  0.37628865  0.69320807  0.73918024    -0.04700
C1233       C  0.37142461  0.80928936  0.43050717    -0.12100
C1234       C  0.35475046  0.81461420  0.39379903     0.03300
C1235       C  0.35408662  0.79736042  0.35249848    -0.12700
C1236       C  0.36969157  0.77472755  0.34670036     0.18200
C1237       C  0.38712561  0.77048028  0.38152428    -0.09700
C1238       C  0.38789921  0.78759587  0.42266581    -0.02700
H1239       H  0.34101737  0.80128689  0.32510236     0.04700
C1240       C  0.36824079  0.75639221  0.30329628     0.20200
H1241       H  0.40102580  0.78299479  0.44960879     0.09900
C1242       C  0.37522266  0.76739517  0.25876942    -0.16000
C1243       C  0.37587654  0.75029099  0.21751725     0.02900
C1244       C  0.36930925  0.72138704  0.22027699    -0.11400
C1245       C  0.36193623  0.71054310  0.26487589    -0.01400
C1246       C  0.36114390  0.72782136  0.30604776    -0.06600
H1247       H  0.38083930  0.78928150  0.25639613     0.05900
H1248       H  0.35653154  0.68861132  0.26763013     0.09300
Br1249     Br  0.41027093  0.74137800  0.37460167    -0.06300
Br1250     Br  0.33214144  0.84458456  0.39722957    -0.03200
Br1251     Br  0.38771343  0.76741662  0.15971525    -0.00400
Br1252     Br  0.34988698  0.71168643  0.36506624    -0.04700
C1253       C  0.44467153  0.83585175  0.59911431    -0.12100
C1254       C  0.45725427  0.86138989  0.59267040     0.03300
C1255       C  0.48151942  0.86088621  0.59327017    -0.12700
C1256       C  0.49366480  0.83554192  0.60076010     0.18200
C1257       C  0.48127917  0.81021368  0.60806933    -0.09700
C1258       C  0.45701560  0.81045054  0.60637577    -0.02700
H1259       H  0.49104491  0.88048993  0.58816050     0.04700
C1260       C  0.51923634  0.83632512  0.60304427     0.20200
H1261       H  0.44775626  0.79077416  0.61254826     0.09900
C1262       C  0.52991229  0.85067317  0.64138451    -0.16000
C1263       C  0.55410688  0.85174476  0.64519165     0.02900
C1264       C  0.56796474  0.83789403  0.61038336    -0.11400
C1265       C  0.55722383  0.82386692  0.57170279    -0.01400
C1266       C  0.53304480  0.82345151  0.56733325    -0.06600
H1267       H  0.51933225  0.86086331  0.66870371     0.05900
H1268       H  0.56771614  0.81371619  0.54418834     0.09300
Br1269     Br  0.49665977  0.77527593  0.62395882    -0.06300
Br1270     Br  0.44287758  0.89774844  0.58221974    -0.03200
Br1271     Br  0.56699295  0.87110346  0.70000783    -0.00400
Br1272     Br  0.51973308  0.80637620  0.51087240    -0.04700
C1273       C  0.20868481  0.72426606  0.42079386    -0.12100
C1274       C  0.20844014  0.75391659  0.42923868     0.03300
C1275       C  0.22825414  0.76715125  0.44807157    -0.12700
C1276       C  0.24829188  0.75138396  0.45853215     0.18200
C1277       C  0.24892372  0.72228460  0.44829880    -0.09700
C1278       C  0.22945793  0.70912163  0.42881650    -0.02700
H1279       H  0.22786857  0.78968603  0.45570861     0.04700
C1280       C  0.26808837  0.76490938  0.48271775     0.20200
H1281       H  0.23023436  0.68641556  0.42311575     0.09900
C1282       C  0.26666721  0.77061220  0.53228215    -0.16000
C1283       C  0.28593016  0.78110360  0.55729693     0.02900
C1284       C  0.30697382  0.78537386  0.53269309    -0.11400
C1285       C  0.30835824  0.77952885  0.48318986    -0.01400
C1286       C  0.28900577  0.76975348  0.45795041    -0.06600
H1287       H  0.25063004  0.76657710  0.55155255     0.05900
H1288       H  0.32428559  0.78376296  0.46365960     0.09300
Br1289     Br  0.27523468  0.69906042  0.46476977    -0.06300
Br1290     Br  0.18186462  0.77766155  0.41721064    -0.03200
Br1291     Br  0.28301991  0.78850305  0.62495079    -0.00400
Br1292     Br  0.29164169  0.76414792  0.38959042    -0.04700
C1293       C  0.30965525  0.87527239  0.67996286    -0.12100
C1294       C  0.30267984  0.85438688  0.71350020     0.03300
C1295       C  0.28217005  0.85797004  0.73972431    -0.12700
C1296       C  0.26842680  0.88223463  0.73377524     0.18200
C1297       C  0.27569813  0.90356471  0.70168245    -0.09700
C1298       C  0.29603952  0.89981171  0.67454657    -0.02700
H1299       H  0.27658057  0.84138539  0.76416497     0.04700
C1300       C  0.24583694  0.88371630  0.75906211     0.20200
H1301       H  0.30124973  0.91609281  0.64919631     0.09900
C1302       C  0.24409043  0.89792958  0.80331594    -0.16000
C1303       C  0.22337375  0.89736963  0.83006415     0.02900
C1304       C  0.20379163  0.88241725  0.81220096    -0.11400
C1305       C  0.20567292  0.86886457  0.76703435    -0.01400
C1306       C  0.22640047  0.86921818  0.74086714    -0.06600
H1307       H  0.25910444  0.90896312  0.81762575     0.05900
H1308       H  0.19120902  0.85686440  0.75258135     0.09300
Br1309     Br  0.25812073  0.93777179  0.69340369    -0.06300
Br1310     Br  0.31926793  0.81941655  0.72257985    -0.03200
Br1311     Br  0.22344031  0.91716190  0.89056881    -0.00400
Br1312     Br  0.22765570  0.84865559  0.68111236    -0.04700
loop_ 
_geom_bond_atom_site_label_1 
_geom_bond_atom_site_label_2 
_geom_bond_distance 
_geom_bond_site_symmetry_2 
_ccdc_geom_bond_type 
O1           C16   1.268       .  A
O1           Al9   1.930       .  S
C2           O12   1.267       .  A
C2            O3   1.257       .  A
C2         C1293   1.477       .  S
O3           Al5   1.881       .  S
O4            C6   1.267       .  A
O4           Al5   1.943       .  S
Al5          O13   1.953       .  S
Al5          O15   1.873       .  S
Al5          O14   1.772       .  S
C6           O19   1.262       .  A
C6         C1224   1.498       .  S
O7           C17   1.267       .  A
O7           Al9   1.934       .  S
O8           C21   1.266       .  A
O8          Al18   1.942       .  S
Al9          O22   1.894       .  S
Al9          O19   1.899       .  S
Al9          O14   1.775       .  S
O10          C17   1.257       .  A
O10         Al18   1.881       .  S
O11          C20   1.262       .  A
O11         Al18   1.894       .  S
O12         Al18   1.941       .  S
O13          C20   1.271       .  A
O14         Al18   1.776       .  S
O15          C16   1.258       .  A
C16        C1253   1.478       .  S
C17        C1284   1.460       .  S
C20        C1193   1.491       .  S
C21          O22   1.262       .  A
C21        C1233   1.495       .  S
O23          C38   1.260       .  A
O23         Al31   1.896       .  S
C24          O34   1.259       .  A
C24          O25   1.266       .  A
C24        C1133   1.483       .  S
O25         Al27   1.943       .  S
O26          C28   1.255       .  A
O26         Al27   1.860       .  S
Al27         O35   1.882       .  S
Al27         O37   1.949       .  S
Al27         O36   1.776       .  S
C28          O41   1.267       .  A
C28        C1113   1.467       .  S
O29          C39   1.260       .  A
O29         Al31   1.891       .  S
O30          C43   1.260       .  A
O30         Al40   1.880       .  S
Al31         O44   1.923       .  S
Al31         O41   1.940       .  S
Al31         O36   1.779       .  S
O32          C39   1.266       .  A
O32         Al40   1.943       .  S
O33          C42   1.272       .  A
O33         Al40   1.962       .  S
O34         Al40   1.893       .  S
O35          C42   1.260       .  A
O36         Al40   1.779       .  S
O37          C38   1.267       .  A
C38        C1184   1.499       .  S
C39        C1153   1.499       .  S
C42        C1093   1.488       .  S
C43          O44   1.268       .  A
C43        C1264   1.469       .  S
O45          C60   1.267       .  A
O45         Al53   1.924       .  S
C46          O56   1.265       .  A
C46          O47   1.260       .  A
C46        C1053   1.480       .  S
O47         Al49   1.898       .  S
O48          C50   1.268       .  A
O48         Al49   1.950       .  S
Al49         O57   1.969       .  S
Al49         O59   1.893       .  S
Al49         O58   1.778       .  S
C50          O63   1.259       .  A
C50        C1173   1.496       .  S
O51          C61   1.267       .  A
O51         Al53   1.938       .  S
O52          C65   1.265   1_554  A
O52         Al62   1.930       .  S
Al53         O66   1.897       .  S
Al53         O63   1.888       .  S
Al53         O58   1.777       .  S
O54          C61   1.257       .  A
O54         Al62   1.863       .  S
O55          C64   1.259       .  A
O55         Al62   1.875       .  S
O56         Al62   1.935       .  S
O57          C64   1.273       .  A
O58         Al62   1.776       .  S
O59          C60   1.263       .  A
C60        C1084   1.477       .  S
C61        C1033   1.475       .  S
C64        C1013   1.489       .  S
C65          O66   1.259   1_556  A
C65        C1164   1.489       .  S
O67          C82   1.261   1_554  A
O67         Al75   1.899       .  S
C68          O78   1.257       .  A
C68          O69   1.265       .  A
C68        C1004   1.494       .  S
O69         Al71   1.935       .  S
O70          C72   1.257       .  A
O70         Al71   1.876       .  S
Al71         O79   1.876       .  S
Al71         O81   1.946   1_554  S
Al71         O80   1.775       .  S
C72          O85   1.264       .  A
C72         C984   1.447       .  S
O73          C83   1.257       .  A
O73         Al75   1.882       .  S
O74          C87   1.261       .  A
O74         Al84   1.894       .  S
Al75         O88   1.913       .  S
Al75         O85   1.919       .  S
Al75         O80   1.777       .  S
O76          C83   1.269       .  A
O76         Al84   1.945       .  S
O77          C86   1.272       .  A
O77         Al84   1.955       .  S
O78         Al84   1.893       .  S
O79          C86   1.260       .  A
O80         Al84   1.777       .  S
O81          C82   1.266       .  A
C82        C1213   1.499       .  S
C83        C1244   1.485       .  S
C86         C964   1.476       .  S
C87          O88   1.262       .  A
C87        C1073   1.479       .  S
O89         C104   1.267       .  A
O89         Al97   1.920       .  S
C90         O100   1.266       .  A
C90          O91   1.260       .  A
C90        C1304   1.492       .  S
O91         Al93   1.887       .  S
O92          C94   1.265       .  A
O92         Al93   1.938       .  S
Al93        O101   1.942       .  S
Al93        O103   1.892       .  S
Al93        O102   1.775       .  S
C94         O107   1.255       .  A
C94         C893   1.482       .  S
O95         C105   1.265       .  A
O95         Al97   1.923       .  S
O96         C109   1.267       .  A
O96        Al106   1.938       .  S
Al97        O110   1.882       .  S
Al97        O107   1.869       .  S
Al97        O102   1.773       .  S
O98         C105   1.255       .  A
O98        Al106   1.861       .  S
O99         C108   1.262       .  A
O99        Al106   1.888       .  S
O100       Al106   1.940       .  S
O101        C108   1.268       .  A
O102       Al106   1.774       .  S
O103        C104   1.261       .  A
C104        C944   1.486       .  S
C105        C973   1.467       .  S
C108        C884   1.495       .  S
C109        O110   1.257       .  A
C109        C913   1.480   1_556  S
O111        C126   1.257   1_556  A
O111       Al119   1.890       .  S
C112        O122   1.259       .  A
C112        O113   1.272       .  A
C112       C1144   1.493       .  S
O113       Al115   1.951       .  S
O114        C116   1.255       .  A
O114       Al115   1.868       .  S
Al115       O123   1.892       .  S
Al115       O125   1.941   1_556  S
Al115       O124   1.769       .  S
C116        O129   1.269       .  A
C116       C1044   1.472       .  S
O117        C127   1.261       .  A
O117       Al119   1.892       .  S
O118        C131   1.261       .  A
O118       Al128   1.879       .  S
Al119       O132   1.939       .  S
Al119       O129   1.948       .  S
Al119       O124   1.774       .  S
O120        C127   1.264       .  A
O120       Al128   1.932       .  S
O121        C130   1.266       .  A
O121       Al128   1.938       .  S
O122       Al128   1.885       .  S
O123        C130   1.259       .  A
O124       Al128   1.773       .  S
O125        C126   1.267       .  A
C126        C853   1.480       .  S
C127        C833   1.493       .  S
C130        C824   1.478       .  S
C131        O132   1.270       .  A
C131        C933   1.469       .  S
O133        C148   1.262       .  A
O133       Al141   1.907       .  S
C134        O144   1.264       .  A
C134        O135   1.258       .  A
C134       C1064   1.489       .  S
O135       Al137   1.888       .  S
O136        C138   1.268       .  A
O136       Al137   1.943       .  S
Al137       O145   1.965       .  S
Al137       O147   1.891       .  S
Al137       O146   1.783       .  S
C138        O151   1.257       .  A
C138        C864   1.493       .  S
O139        C149   1.264       .  A
O139       Al141   1.921       .  S
O140        C153   1.266       .  A
O140       Al150   1.936       .  S
Al141       O154   1.896       .  S
Al141       O151   1.882       .  S
Al141       O146   1.778       .  S
O142        C149   1.256       .  A
O142       Al150   1.874       .  S
O143        C152   1.259       .  A
O143       Al150   1.884       .  S
O144       Al150   1.934       .  S
O145        C152   1.273       .  A
O146       Al150   1.777       .  S
O147        C148   1.262       .  A
C148        C793   1.466       .  S
C149       C1124   1.466       .  S
C152        C784   1.495       .  S
C153        O154   1.260       .  A
C153        C844   1.486       .  S
O155        C170   1.260       .  A
O155       Al163   1.892       .  S
C156        O166   1.258       .  A
C156        O157   1.261       .  A
C156        C993   1.472       .  S
O157       Al159   1.926       .  S
O158        C160   1.260       .  A
O158       Al159   1.880       .  S
Al159       O167   1.884       .  S
Al159       O169   1.925       .  S
Al159       O168   1.776       .  S
C160        O173   1.265       .  A
C160       C1273   1.481       .  S
O161        C171   1.259       .  A
O161       Al163   1.882       .  S
O162        C175   1.261       .  A
O162       Al172   1.880       .  S
Al163       O176   1.922       .  S
Al163       O173   1.928       .  S
Al163       O168   1.778       .  S
O164        C171   1.266       .  A
O164       Al172   1.939       .  S
O165        C174   1.273       .  A
O165       Al172   1.957       .  S
O166       Al172   1.892       .  S
O167        C174   1.259       .  A
O168       Al172   1.774       .  S
O169        C170   1.263       .  A
C170        C904   1.477       .  S
C171        C924   1.486       .  S
C174        C753   1.498       .  S
C175        O176   1.264       .  A
C175        C804   1.481       .  S
O177        C192   1.262       .  A
O177       Al185   1.915       .  S
C178        O188   1.266       .  A
C178        O179   1.257       .  A
C178        C673   1.483       .  S
O179       Al181   1.885       .  S
O180        C182   1.272       .  A
O180       Al181   1.954       .  S
Al181       O189   1.962       .  S
Al181       O191   1.891       .  S
Al181       O190   1.778       .  S
C182        O195   1.259       .  A
C182        C704   1.493       .  S
O183        C193   1.263       .  A
O183       Al185   1.922       .  S
O184        C197   1.269       .  A
O184       Al194   1.938   1_554  S
Al185       O198   1.896       .  S
Al185       O195   1.885       .  S
Al185       O190   1.777       .  S
O186        C193   1.258       .  A
O186       Al194   1.882       .  S
O187        C196   1.259       .  A
O187       Al194   1.876       .  S
O188       Al194   1.937       .  S
O189        C196   1.271       .  A
O190       Al194   1.774       .  S
O191        C192   1.261       .  A
C192        C733   1.482       .  S
C193        C653   1.467       .  S
C196       C1024   1.502       .  S
C197        O198   1.262   1_554  A
C197        C713   1.488       .  S
O199        C214   1.258   1_556  A
O199       Al207   1.883       .  S
C200        O210   1.257       .  A
C200        O201   1.270       .  A
C200        C644   1.477       .  S
O201       Al203   1.949       .  S
O202        C204   1.255       .  A
O202       Al203   1.878       .  S
Al203       O211   1.890       .  S
Al203       O213   1.957       .  S
Al203       O212   1.770       .  S
C204        O217   1.264       .  A
C204        C624   1.455       .  S
O205        C215   1.258       .  A
O205       Al207   1.874       .  S
O206        C219   1.259       .  A
O206       Al216   1.880       .  S
Al207       O220   1.932       .  S
Al207       O217   1.929       .  S
Al207       O212   1.772       .  S
O208        C215   1.268       .  A
O208       Al216   1.951       .  S
O209        C218   1.269       .  A
O209       Al216   1.949       .  S
O210       Al216   1.869       .  S
O211        C218   1.260       .  A
O212       Al216   1.775       .  S
O213        C214   1.272   1_556  A
C214        C604   1.497       .  S
C215        C573   1.494       .  S
C218        C953   1.482       .  S
C219        O220   1.268       .  A
C219        C744   1.473       .  S
O221        C236   1.265       .  A
O221       Al229   1.925       .  S
C222        O232   1.262       .  A
C222        O223   1.263       .  A
C222        C544   1.498       .  S
O223       Al225   1.912       .  S
O224        C226   1.266       .  A
O224       Al225   1.941       .  S
Al225       O233   1.953       .  S
Al225       O235   1.904       .  S
Al225       O234   1.776       .  S
C226        O239   1.259       .  A
C226        C593   1.478       .  S
O227        C237   1.267       .  A
O227       Al229   1.944       .  S
O228        C241   1.266       .  A
O228       Al238   1.936       .  S
Al229       O242   1.894       .  S
Al229       O239   1.892       .  S
Al229       O234   1.782       .  S
O230        C237   1.255       .  A
O230       Al238   1.866       .  S
O231        C240   1.261       .  A
O231       Al238   1.886       .  S
O232       Al238   1.923       .  S
O233        C240   1.271       .  A
O234       Al238   1.777       .  S
O235        C236   1.266       .  A
C236        C524   1.494       .  S
C237        C564   1.475       .  S
C240       C1204   1.482       .  S
C241        O242   1.259       .  A
C241        C584   1.481       .  S
O243        C258   1.259       .  A
O243       Al251   1.888       .  S
C244        O254   1.263       .  A
C244        O245   1.266       .  A
C244        C484   1.499       .  S
O245       Al247   1.937       .  S
O246        C248   1.255       .  A
O246       Al247   1.870       .  S
Al247       O255   1.879       .  S
Al247       O257   1.942       .  S
Al247       O256   1.774       .  S
C248        O261   1.267       .  A
C248        C493   1.461       .  S
O249        C259   1.259       .  A
O249       Al251   1.881       .  S
O250        C263   1.262       .  A
O250       Al260   1.899       .  S
Al251       O264   1.941       .  S
Al251       O261   1.943       .  S
Al251       O256   1.779       .  S
O252        C259   1.269       .  A
O252       Al260   1.948       .  S
O253        C262   1.272       .  A
O253       Al260   1.960       .  S
O254       Al260   1.910       .  S
O255        C262   1.258       .  A
O256       Al260   1.776       .  S
O257        C258   1.268       .  A
C258        C693   1.491       .  S
C259        C724   1.490       .  S
C262       C1104   1.495       .  S
C263        O264   1.268       .  A
C263        C513   1.485       .  S
O265        C280   1.264       .  A
O265       Al273   1.899       .  S
C266        O276   1.256       .  A
C266        O267   1.259       .  A
C266        C684   1.479       .  S
O267       Al269   1.899       .  S
O268        C270   1.261       .  A
O268       Al269   1.942       .  S
Al269       O277   1.938       .  S
Al269       O279   1.920       .  S
Al269       O278   1.795       .  S
C270        O283   1.251       .  A
C270        C444   1.499       .  S
O271        C281   1.266       .  A
O271       Al273   1.912       .  S
O272        C285   1.260       .  A
O272       Al282   1.925       .  S
Al273       O286   1.867       .  S
Al273       O283   1.883       .  S
Al273       O278   1.794       .  S
O274        C281   1.262       .  A
O274       Al282   1.890       .  S
O275        C284   1.255       .  A
O275       Al282   1.885       .  S
O276       Al282   1.887       .  S
O277        C284   1.267       .  A
O278       Al282   1.796       .  S
O279        C280   1.269       .  A
C280        C453   1.493       .  S
C281        C504   1.460       .  S
C284        C773   1.504       .  S
C285        O286   1.251       .  A
C285        C424   1.481       .  S
O287        C302   1.262       .  A
O287       Al295   1.898       .  S
C288        O298   1.260       .  A
C288        O289   1.266       .  A
C288        C633   1.495       .  S
O289       Al291   1.939       .  S
O290        C292   1.257       .  A
O290       Al291   1.876       .  S
Al291       O299   1.889       .  S
Al291       O301   1.945       .  S
Al291       O300   1.776       .  S
C292        O305   1.264       .  A
C292        C553   1.472       .  S
O293        C303   1.260       .  A
O293       Al295   1.888       .  S
O294        C307   1.260       .  A
O294       Al304   1.892       .  S
Al295       O308   1.928       .  S
Al295       O305   1.928       .  S
Al295       O300   1.780       .  S
O296        C303   1.269       .  A
O296       Al304   1.949       .  S
O297        C306   1.268       .  A
O297       Al304   1.949       .  S
O298       Al304   1.885       .  S
O299        C306   1.261       .  A
O300       Al304   1.779       .  S
O301        C302   1.268       .  A
C302        C384   1.499       .  S
C303        C393   1.492       .  S
C306        C764   1.493       .  S
C307        O308   1.265       .  A
C307        C464   1.470       .  S
O309        C324   1.267       .  A
O309       Al317   1.927       .  S
C310        O320   1.267       .  A
C310        O311   1.262       .  A
C310        C533   1.488       .  S
O311       Al313   1.905       .  S
O312        C314   1.266       .  A
O312       Al313   1.946       .  S
Al313       O321   1.959       .  S
Al313       O323   1.894       .  S
Al313       O322   1.777       .  S
C314        O327   1.258       .  A
C314        C373   1.490       .  S
O315        C325   1.269       .  A
O315       Al317   1.934       .  S
O316        C329   1.266       .  A
O316       Al326   1.940   1_556  S
Al317       O330   1.892       .  S
Al317       O327   1.887       .  S
Al317       O322   1.775       .  S
O318        C325   1.255       .  A
O318       Al326   1.859       .  S
O319        C328   1.260       .  A
O319       Al326   1.880       .  S
O320       Al326   1.943       .  S
O321        C328   1.271       .  A
O322       Al326   1.777       .  S
O323        C324   1.264       .  A
C324        C353   1.478       .  S
C325        C613   1.472       .  S
C328        C873   1.487       .  S
C329        O330   1.258   1_556  A
C329        C404   1.489       .  S
O331        C346   1.257   1_554  A
O331       Al339   1.885       .  S
C332        O342   1.262       .  A
C332        O333   1.270       .  A
C332        C473   1.503       .  S
O333       Al335   1.953       .  S
O334        C336   1.256       .  A
O334       Al335   1.864       .  S
Al335       O343   1.893       .  S
Al335       O345   1.964       .  S
Al335       O344   1.773       .  S
C336        O349   1.268       .  A
C336        C664   1.472       .  S
O337        C347   1.255       .  A
O337       Al339   1.874       .  S
O338        C351   1.264       .  A
O338       Al348   1.895       .  S
Al339       O352   1.934       .  S
Al339       O349   1.939       .  S
Al339       O344   1.771       .  S
O340        C347   1.264       .  A
O340       Al348   1.930       .  S
O341        C350   1.268       .  A
O341       Al348   1.939       .  S
O342       Al348   1.897       .  S
O343        C350   1.262       .  A
O344       Al348   1.778       .  S
O345        C346   1.269   1_554  A
C346        C433   1.499       .  S
C347        C413   1.477       .  S
C350        C813   1.475       .  S
C351        O352   1.268       .  A
C351        C364   1.486       .  S
C353        C354   1.413       .  A
C353        C358   1.404       .  A
C354        C355   1.401       .  A
C354       Br370   1.922       .  S
C355        C356   1.403       .  A
C355        H359   1.084       .  S
C356        C360   1.481   1_455  S
C356        C357   1.408       .  A
C357        C358   1.398       .  A
C357       Br369   1.919       .  S
C358        H361   1.084       .  S
C360        C362   1.400       .  A
C360        C366   1.408       .  A
C362        C363   1.401       .  A
C362        H367   1.084       .  S
C363        C364   1.416       .  A
C363       Br371   1.918       .  S
C364        C365   1.407       .  A
C365        C366   1.399       .  A
C365        H368   1.084       .  S
C366       Br372   1.920       .  S
C373        C374   1.412       .  A
C373        C378   1.408       .  A
C374        C375   1.405       .  A
C374       Br390   1.919       .  S
C375        C376   1.408       .  A
C375        H379   1.083       .  S
C376        C380   1.497       .  S
C376        C377   1.411       .  A
C377        C378   1.402       .  A
C377       Br389   1.920       .  S
C378        H381   1.083       .  S
C380        C382   1.406       .  A
C380        C386   1.410       .  A
C382        C383   1.406       .  A
C382        H387   1.083       .  S
C383        C384   1.417       .  A
C383       Br391   1.921       .  S
C384        C385   1.410       .  A
C385        C386   1.401       .  A
C385        H388   1.083       .  S
C386       Br392   1.921       .  S
C393        C394   1.415       .  A
C393        C398   1.409       .  A
C394        C395   1.405       .  A
C394       Br410   1.917       .  S
C395        C396   1.403       .  A
C395        H399   1.083       .  S
C396        C400   1.485       .  S
C396        C397   1.405       .  A
C397        C398   1.401       .  A
C397       Br409   1.918       .  S
C398        H401   1.083       .  S
C400        C402   1.402       .  A
C400        C406   1.407       .  A
C402        C403   1.403       .  A
C402        H407   1.082       .  S
C403        C404   1.415       .  A
C403       Br411   1.920       .  S
C404        C405   1.409       .  A
C405        C406   1.403       .  A
C405        H408   1.082       .  S
C406       Br412   1.918       .  S
C413        C414   1.412       .  A
C413        C418   1.408       .  A
C414        C415   1.397       .  A
C414       Br430   1.921       .  S
C415        C416   1.402       .  A
C415        H419   1.083       .  S
C416        C420   1.475       .  S
C416        C417   1.405       .  A
C417        C418   1.398       .  A
C417       Br429   1.918       .  S
C418        H421   1.083       .  S
C420        C422   1.406       .  A
C420        C426   1.402       .  A
C422        C423   1.406       .  A
C422        H427   1.084       .  S
C423        C424   1.410       .  A
C423       Br431   1.915       .  S
C424        C425   1.409       .  A
C425        C426   1.389       .  A
C425        H428   1.083       .  S
C426       Br432   1.922       .  S
C433        C434   1.418       .  A
C433        C438   1.410       .  A
C434        C435   1.406       .  A
C434       Br450   1.919       .  S
C435        C436   1.404       .  A
C435        H439   1.083       .  S
C436        C440   1.493       .  S
C436        C437   1.407       .  A
C437        C438   1.403       .  A
C437       Br449   1.918       .  S
C438        H441   1.082       .  S
C440        C442   1.409       .  A
C440        C446   1.404       .  A
C442        C443   1.412       .  A
C442        H447   1.083       .  S
C443        C444   1.414       .  A
C443       Br451   1.917       .  S
C444        C445   1.412       .  A
C445        C446   1.398       .  A
C445        H448   1.083       .  S
C446       Br452   1.920       .  S
C453        C454   1.420       .  A
C453        C458   1.411       .  A
C454        C455   1.402       .  A
C454       Br470   1.923       .  S
C455        C456   1.400       .  A
C455        H459   1.084       .  S
C456        C460   1.477   1_655  S
C456        C457   1.402       .  A
C457        C458   1.398       .  A
C457       Br469   1.918       .  S
C458        H461   1.084       .  S
C460        C462   1.402       .  A
C460        C466   1.407       .  A
C462        C463   1.400       .  A
C462        H467   1.084       .  S
C463        C464   1.408       .  A
C463       Br471   1.919       .  S
C464        C465   1.402       .  A
C465        C466   1.399       .  A
C465        H468   1.084       .  S
C466       Br472   1.918       .  S
C473        C474   1.418       .  A
C473        C478   1.412       .  A
C474        C475   1.407       .  A
C474       Br490   1.920       .  S
C475        C476   1.405       .  A
C475        H479   1.083       .  S
C476        C480   1.496       .  S
C476        C477   1.409       .  A
C477        C478   1.404       .  A
C477       Br489   1.920       .  S
C478        H481   1.083       .  S
C480        C482   1.405       .  A
C480        C486   1.410       .  A
C482        C483   1.407       .  A
C482        H487   1.084       .  S
C483        C484   1.418       .  A
C483       Br491   1.920       .  S
C484        C485   1.409       .  A
C485        C486   1.404       .  A
C485        H488   1.084       .  S
C486       Br492   1.920       .  S
C493        C494   1.403       .  A
C493        C498   1.403       .  A
C494        C495   1.402       .  A
C494       Br510   1.916       .  S
C495        C496   1.407       .  A
C495        H499   1.082       .  S
C496        C500   1.468       .  S
C496        C497   1.401       .  A
C497        C498   1.390       .  A
C497       Br509   1.918       .  S
C498        H501   1.081       .  S
C500        C502   1.399       .  A
C500        C506   1.406       .  A
C502        C503   1.395       .  A
C502        H507   1.084       .  S
C503        C504   1.408       .  A
C503       Br511   1.915       .  S
C504        C505   1.401       .  A
C505        C506   1.397       .  A
C505        H508   1.083       .  S
C506       Br512   1.918       .  S
C513        C514   1.412       .  A
C513        C518   1.405       .  A
C514        C515   1.401       .  A
C514       Br530   1.920       .  S
C515        C516   1.405       .  A
C515        H519   1.084       .  S
C516        C520   1.493       .  S
C516        C517   1.413       .  A
C517        C518   1.404       .  A
C517       Br529   1.920       .  S
C518        H521   1.084       .  S
C520        C522   1.404       .  A
C520        C526   1.410       .  A
C522        C523   1.404       .  A
C522        H527   1.084       .  S
C523        C524   1.420       .  A
C523       Br531   1.922       .  S
C524        C525   1.407       .  A
C525        C526   1.400       .  A
C525        H528   1.083       .  S
C526       Br532   1.919       .  S
C533        C534   1.414       .  A
C533        C538   1.407       .  A
C534        C535   1.400       .  A
C534       Br550   1.919       .  S
C535        C536   1.400       .  A
C535        H539   1.084       .  S
C536        C540   1.487       .  S
C536        C537   1.409       .  A
C537        C538   1.407       .  A
C537       Br549   1.916       .  S
C538        H541   1.084       .  S
C540        C542   1.401       .  A
C540        C546   1.407       .  A
C542        C543   1.404       .  A
C542        H547   1.084       .  S
C543        C544   1.421       .  A
C543       Br551   1.923       .  S
C544        C545   1.410       .  A
C545        C546   1.403       .  A
C545        H548   1.083       .  S
C546       Br552   1.917       .  S
C553        C554   1.412       .  A
C553        C558   1.405       .  A
C554        C555   1.395       .  A
C554       Br570   1.920       .  S
C555        C556   1.401       .  A
C555        H559   1.084       .  S
C556        C560   1.474       .  S
C556        C557   1.407       .  A
C557        C558   1.395       .  A
C557       Br569   1.919       .  S
C558        H561   1.084       .  S
C560        C562   1.406       .  A
C560        C566   1.404       .  A
C562        C563   1.401       .  A
C562        H567   1.083       .  S
C563        C564   1.409       .  A
C563       Br571   1.918       .  S
C564        C565   1.408       .  A
C565        C566   1.388       .  A
C565        H568   1.083       .  S
C566       Br572   1.922       .  S
C573        C574   1.417       .  A
C573        C578   1.412       .  A
C574        C575   1.404       .  A
C574       Br590   1.920       .  S
C575        C576   1.404       .  A
C575        H579   1.084       .  S
C576        C580   1.483       .  S
C576        C577   1.405       .  A
C577        C578   1.396       .  A
C577       Br589   1.920       .  S
C578        H581   1.084       .  S
C580        C582   1.403       .  A
C580        C586   1.409       .  A
C582        C583   1.401       .  A
C582        H587   1.083       .  S
C583        C584   1.411       .  A
C583       Br591   1.918       .  S
C584        C585   1.406       .  A
C585        C586   1.400       .  A
C585        H588   1.083       .  S
C586       Br592   1.919       .  S
C593        C594   1.409       .  A
C593        C598   1.403       .  A
C594        C595   1.401       .  A
C594       Br610   1.918       .  S
C595        C596   1.403       .  A
C595        H599   1.084       .  S
C596        C600   1.489       .  S
C596        C597   1.413       .  A
C597        C598   1.405       .  A
C597       Br609   1.920       .  S
C598        H601   1.084       .  S
C600        C602   1.401       .  A
C600        C606   1.408       .  A
C602        C603   1.404       .  A
C602        H607   1.084       .  S
C603        C604   1.422       .  A
C603       Br611   1.924       .  S
C604        C605   1.408       .  A
C605        C606   1.402       .  A
C605        H608   1.083       .  S
C606       Br612   1.918       .  S
C613        C614   1.415       .  A
C613        C618   1.405       .  A
C614        C615   1.391       .  A
C614       Br630   1.922       .  S
C615        C616   1.399       .  A
C615        H619   1.085       .  S
C616        C620   1.472   1_554  S
C616        C617   1.408   1_554  A
C617        C618   1.396   1_556  A
C617       Br629   1.919       .  S
C618        H621   1.084       .  S
C620        C622   1.406       .  A
C620        C626   1.408   1_556  A
C622        C623   1.400       .  A
C622        H627   1.085       .  S
C623        C624   1.404       .  A
C623       Br631   1.918       .  S
C624        C625   1.398       .  A
C625        C626   1.390   1_556  A
C625        H628   1.084   1_556  S
C626       Br632   1.921       .  S
C633        C634   1.418       .  A
C633        C638   1.410       .  A
C634        C635   1.403       .  A
C634       Br650   1.920       .  S
C635        C636   1.402       .  A
C635        H639   1.084       .  S
C636        C640   1.480       .  S
C636        C637   1.404       .  A
C637        C638   1.397       .  A
C637       Br649   1.921       .  S
C638        H641   1.080       .  S
C640        C642   1.406       .  A
C640        C646   1.407       .  A
C642        C643   1.404       .  A
C642        H647   1.083       .  S
C643        C644   1.410       .  A
C643       Br651   1.919       .  S
C644        C645   1.405       .  A
C645        C646   1.394       .  A
C645        H648   1.084       .  S
C646       Br652   1.921       .  S
C653        C654   1.409       .  A
C653        C658   1.405   1_556  A
C654        C655   1.396       .  A
C654       Br670   1.921       .  S
C655        C656   1.401   1_556  A
C655        H659   1.084       .  S
C656        C660   1.467       .  S
C656        C657   1.405       .  A
C657        C658   1.395       .  A
C657       Br669   1.920       .  S
C658        H661   1.084       .  S
C660        C662   1.403       .  A
C660        C666   1.402       .  A
C662        C663   1.400       .  A
C662        H667   1.083       .  S
C663        C664   1.409       .  A
C663       Br671   1.920       .  S
C664        C665   1.407       .  A
C665        C666   1.390       .  A
C665        H668   1.083       .  S
C666       Br672   1.920   1_554  S
C673        C674   1.416       .  A
C673        C678   1.405       .  A
C674        C675   1.398       .  A
C674       Br690   1.918       .  S
C675        C676   1.399       .  A
C675        H679   1.084       .  S
C676        C680   1.481       .  S
C676        C677   1.409       .  A
C677        C678   1.402       .  A
C677       Br689   1.918       .  S
C678        H681   1.084       .  S
C680        C682   1.405       .  A
C680        C686   1.407       .  A
C682        C683   1.403       .  A
C682        H687   1.083       .  S
C683        C684   1.413       .  A
C683       Br691   1.920       .  S
C684        C685   1.404       .  A
C685        C686   1.396       .  A
C685        H688   1.084       .  S
C686       Br692   1.920       .  S
C693        C694   1.417       .  A
C693        C698   1.409       .  A
C694        C695   1.402       .  A
C694       Br710   1.922       .  S
C695        C696   1.401       .  A
C695        H699   1.083       .  S
C696        C700   1.484       .  S
C696        C697   1.407       .  A
C697        C698   1.401       .  A
C697       Br709   1.919       .  S
C698        H701   1.080       .  S
C700        C702   1.399       .  A
C700        C706   1.408       .  A
C702        C703   1.401       .  A
C702        H707   1.084       .  S
C703        C704   1.421       .  A
C703       Br711   1.922       .  S
C704        C705   1.407       .  A
C705        C706   1.402       .  A
C705        H708   1.083       .  S
C706       Br712   1.918       .  S
C713        C714   1.415       .  A
C713        C718   1.408       .  A
C714        C715   1.402       .  A
C714       Br730   1.918       .  S
C715        C716   1.401       .  A
C715        H719   1.085       .  S
C716        C720   1.480       .  S
C716        C717   1.406       .  A
C717        C718   1.399       .  A
C717       Br729   1.918       .  S
C718        H721   1.084       .  S
C720        C722   1.403       .  A
C720        C726   1.403       .  A
C722        C723   1.404       .  A
C722        H727   1.084       .  S
C723        C724   1.415       .  A
C723       Br731   1.920       .  S
C724        C725   1.410       .  A
C725        C726   1.398       .  A
C725        H728   1.084       .  S
C726       Br732   1.918       .  S
C733        C734   1.417       .  A
C733        C738   1.408       .  A
C734        C735   1.395       .  A
C734       Br750   1.921       .  S
C735        C736   1.399       .  A
C735        H739   1.084       .  S
C736        C740   1.476       .  S
C736        C737   1.407       .  A
C737        C738   1.397       .  A
C737       Br749   1.920       .  S
C738        H741   1.083       .  S
C740        C742   1.400       .  A
C740        C746   1.409       .  A
C742        C743   1.395       .  A
C742        H747   1.084       .  S
C743        C744   1.412       .  A
C743       Br751   1.918       .  S
C744        C745   1.403       .  A
C745        C746   1.397       .  A
C745        H748   1.084       .  S
C746       Br752   1.920       .  S
C753        C754   1.422       .  A
C753        C758   1.408       .  A
C754        C755   1.403       .  A
C754       Br770   1.924       .  S
C755        C756   1.401       .  A
C755        H759   1.084       .  S
C756        C760   1.493       .  S
C756        C757   1.411       .  A
C757        C758   1.404       .  A
C757       Br769   1.919       .  S
C758        H761   1.084       .  S
C760        C762   1.408       .  A
C760        C766   1.409       .  A
C762        C763   1.409       .  A
C762        H767   1.082       .  S
C763        C764   1.415       .  A
C763       Br771   1.919       .  S
C764        C765   1.407       .  A
C765        C766   1.398       .  A
C765        H768   1.083       .  S
C766       Br772   1.921       .  S
C773        C774   1.425       .  A
C773        C778   1.411       .  A
C774        C775   1.400       .  A
C774       Br790   1.924       .  S
C775        C776   1.397       .  A
C775        H779   1.084       .  S
C776        C780   1.489       .  S
C776        C777   1.409       .  A
C777        C778   1.409       .  A
C777       Br789   1.916       .  S
C778        H781   1.083       .  S
C780        C782   1.398       .  A
C780        C786   1.410       .  A
C782        C783   1.398       .  A
C782        H787   1.084       .  S
C783        C784   1.419       .  A
C783       Br791   1.922       .  S
C784        C785   1.409       .  A
C785        C786   1.411       .  A
C785        H788   1.083       .  S
C786       Br792   1.916       .  S
C793        C794   1.408       .  A
C793        C798   1.402       .  A
C794        C795   1.397       .  A
C794       Br810   1.920       .  S
C795        C796   1.402       .  A
C795        H799   1.084       .  S
C796        C800   1.470   1_655  S
C796        C797   1.405       .  A
C797        C798   1.396       .  A
C797       Br809   1.918       .  S
C798        H801   1.082       .  S
C800        C802   1.401       .  A
C800        C806   1.402       .  A
C802        C803   1.400       .  A
C802        H807   1.084       .  S
C803        C804   1.418       .  A
C803       Br811   1.922       .  S
C804        C805   1.406       .  A
C805        C806   1.392       .  A
C805        H808   1.084       .  S
C806       Br812   1.919       .  S
C813        C814   1.409       .  A
C813        C818   1.403       .  A
C814        C815   1.398       .  A
C814       Br830   1.921       .  S
C815        C816   1.405       .  A
C815        H819   1.084   1_545  S
C816        C820   1.487   1_544  S
C816        C817   1.412   1_554  A
C817        C818   1.401   1_556  A
C817       Br829   1.919       .  S
C818        H821   1.084   1_554  S
C820        C822   1.404       .  A
C820        C826   1.411   1_556  A
C822        C823   1.399       .  A
C822        H827   1.084       .  S
C823        C824   1.411       .  A
C823       Br831   1.920       .  S
C824        C825   1.404       .  A
C825        C826   1.401   1_556  A
C825        H828   1.084   1_556  S
C826       Br832   1.920       .  S
C833        C834   1.420       .  A
C833        C838   1.410       .  A
C834        C835   1.402       .  A
C834       Br850   1.922       .  S
C835        C836   1.402       .  A
C835        H839   1.084       .  S
C836        C840   1.484       .  S
C836        C837   1.406       .  A
C837        C838   1.399       .  A
C837       Br849   1.919       .  S
C838        H841   1.083       .  S
C840        C842   1.403       .  A
C840        C846   1.409       .  A
C842        C843   1.402       .  A
C842        H847   1.084       .  S
C843        C844   1.413       .  A
C843       Br851   1.917       .  S
C844        C845   1.408       .  A
C845        C846   1.400       .  A
C845        H848   1.084       .  S
C846       Br852   1.920       .  S
C853        C854   1.411       .  A
C853        C858   1.404       .  A
C854        C855   1.405       .  A
C854       Br870   1.919       .  S
C855        C856   1.408       .  A
C855        H859   1.082       .  S
C856        C860   1.493       .  S
C856        C857   1.413       .  A
C857        C858   1.398       .  A
C857       Br869   1.921       .  S
C858        H861   1.083       .  S
C860        C862   1.402       .  A
C860        C866   1.413       .  A
C862        C863   1.398       .  A
C862        H867   1.084       .  S
C863        C864   1.418       .  A
C863       Br871   1.924       .  S
C864        C865   1.408       .  A
C865        C866   1.405       .  A
C865        H868   1.083       .  S
C866       Br872   1.919       .  S
C873        C874   1.413       .  A
C873        C878   1.406       .  A
C874        C875   1.407       .  A
C874       Br890   1.918       .  S
C875        C876   1.407       .  A
C875        H879   1.083       .  S
C876        C880   1.488   1_544  S
C876        C877   1.408   1_554  A
C877        C878   1.395   1_556  A
C877       Br889   1.922       .  S
C878        H881   1.083   1_554  S
C880        C882   1.404       .  A
C880        C886   1.407   1_556  A
C882        C883   1.404       .  A
C882        H887   1.083   1_565  S
C883        C884   1.419       .  A
C883       Br891   1.922       .  S
C884        C885   1.410       .  A
C885        C886   1.399   1_556  A
C885        H888   1.083   1_556  S
C886       Br892   1.920       .  S
C893        C894   1.414       .  A
C893        C898   1.410       .  A
C894        C895   1.401       .  A
C894       Br910   1.920       .  S
C895        C896   1.402       .  A
C895        H899   1.084       .  S
C896        C900   1.471       .  S
C896        C897   1.401       .  A
C897        C898   1.394       .  A
C897       Br909   1.919       .  S
C898        H901   1.083       .  S
C900        C902   1.398       .  A
C900        C906   1.405       .  A
C902        C903   1.397       .  A
C902        H907   1.083       .  S
C903        C904   1.417       .  A
C903       Br911   1.921       .  S
C904        C905   1.405       .  A
C905        C906   1.398       .  A
C905        H908   1.083       .  S
C906       Br912   1.918       .  S
C913        C914   1.414       .  A
C913        C918   1.407       .  A
C914        C915   1.402       .  A
C914       Br930   1.921       .  S
C915        C916   1.402       .  A
C915        H919   1.083       .  S
C916        C920   1.478       .  S
C916        C917   1.406       .  A
C917        C918   1.398       .  A
C917       Br929   1.919       .  S
C918        H921   1.084       .  S
C920        C922   1.402       .  A
C920        C926   1.403       .  A
C922        C923   1.403       .  A
C922        H927   1.083       .  S
C923        C924   1.416       .  A
C923       Br931   1.920       .  S
C924        C925   1.408       .  A
C925        C926   1.397       .  A
C925        H928   1.083       .  S
C926       Br932   1.919       .  S
C933        C934   1.409       .  A
C933        C938   1.402       .  A
C934        C935   1.399       .  A
C934       Br950   1.921       .  S
C935        C936   1.405       .  A
C935        H939   1.084       .  S
C936        C940   1.480   1_655  S
C936        C937   1.409       .  A
C937        C938   1.396       .  A
C937       Br949   1.920       .  S
C938        H941   1.084       .  S
C940        C942   1.402       .  A
C940        C946   1.406       .  A
C942        C943   1.399       .  A
C942        H947   1.084       .  S
C943        C944   1.417       .  A
C943       Br951   1.922       .  S
C944        C945   1.409       .  A
C945        C946   1.397       .  A
C945        H948   1.083       .  S
C946       Br952   1.920       .  S
C953        C954   1.412       .  A
C953        C958   1.405       .  A
C954        C955   1.400   1_556  A
C954       Br970   1.919   1_556  S
C955        C956   1.403   1_554  A
C955        H959   1.084       .  S
C956        C960   1.488   1_556  S
C956        C957   1.411       .  A
C957        C958   1.403       .  A
C957       Br969   1.920       .  S
C958        H961   1.084       .  S
C960        C962   1.404   1_554  A
C960        C966   1.412       .  A
C962        C963   1.401   1_556  A
C962        H967   1.084       .  S
C963        C964   1.411       .  A
C963       Br971   1.921   1_554  S
C964        C965   1.402       .  A
C965        C966   1.401       .  A
C965        H968   1.084       .  S
C966       Br972   1.919       .  S
C973        C974   1.412       .  A
C973        C978   1.404       .  A
C974        C975   1.388       .  A
C974       Br990   1.922       .  S
C975        C976   1.399       .  A
C975        H979   1.084       .  S
C976        C980   1.469       .  S
C976        C977   1.409       .  A
C977        C978   1.395       .  A
C977       Br989   1.921   1_556  S
C978        H981   1.083       .  S
C980        C982   1.406   1_556  A
C980        C986   1.410       .  A
C982        C983   1.395       .  A
C982        H987   1.083       .  S
C983        C984   1.401       .  A
C983       Br991   1.919       .  S
C984        C985   1.397   1_554  A
C985        C986   1.388       .  A
C985        H988   1.084       .  S
C986       Br992   1.923       .  S
C993        C994   1.410       .  A
C993        C998   1.404       .  A
C994        C995   1.395       .  A
C994      Br1010   1.920       .  S
C995        C996   1.400       .  A
C995        H999   1.084       .  S
C996       C1000   1.478       .  S
C996        C997   1.408       .  A
C997        C998   1.403       .  A
C997      Br1009   1.916       .  S
C998       H1001   1.084       .  S
C1000      C1002   1.399       .  A
C1000      C1006   1.404       .  A
C1002      C1003   1.401       .  A
C1002      H1007   1.084       .  S
C1003      C1004   1.421       .  A
C1003     Br1011   1.922       .  S
C1004      C1005   1.410       .  A
C1005      C1006   1.400       .  A
C1005      H1008   1.083       .  S
C1006     Br1012   1.918       .  S
C1013      C1014   1.412       .  A
C1013      C1018   1.408       .  A
C1014      C1015   1.410       .  A
C1014     Br1030   1.918       .  S
C1015      C1016   1.408       .  A
C1015      H1019   1.083       .  S
C1016      C1020   1.488   1_554  S
C1016      C1017   1.405       .  A
C1017      C1018   1.397       .  A
C1017     Br1029   1.919   1_554  S
C1018      H1021   1.083       .  S
C1020      C1022   1.406       .  A
C1020      C1026   1.403   1_556  A
C1022      C1023   1.409       .  A
C1022      H1027   1.083       .  S
C1023      C1024   1.419       .  A
C1023     Br1031   1.920       .  S
C1024      C1025   1.413   1_556  A
C1025      C1026   1.398       .  A
C1025      H1028   1.083       .  S
C1026     Br1032   1.919       .  S
C1033      C1034   1.414       .  A
C1033      C1038   1.408       .  A
C1034      C1035   1.398       .  A
C1034     Br1050   1.921   1_554  S
C1035      C1036   1.402       .  A
C1035      H1039   1.084   1_554  S
C1036      C1040   1.470   1_554  S
C1036      C1037   1.403       .  A
C1037      C1038   1.392       .  A
C1037     Br1049   1.919       .  S
C1038      H1041   1.084       .  S
C1040      C1042   1.394   1_556  A
C1040      C1046   1.410       .  A
C1042      C1043   1.389   1_554  A
C1042      H1047   1.084       .  S
C1043      C1044   1.417       .  A
C1043     Br1051   1.921   1_556  S
C1044      C1045   1.403       .  A
C1045      C1046   1.401       .  A
C1045      H1048   1.083       .  S
C1046     Br1052   1.918       .  S
C1053      C1054   1.413       .  A
C1053      C1058   1.404       .  A
C1054      C1055   1.400       .  A
C1054     Br1070   1.920       .  S
C1055      C1056   1.402       .  A
C1055      H1059   1.085       .  S
C1056      C1060   1.483       .  S
C1056      C1057   1.408       .  A
C1057      C1058   1.403       .  A
C1057     Br1069   1.916       .  S
C1058      H1061   1.084       .  S
C1060      C1062   1.403       .  A
C1060      C1066   1.406       .  A
C1062      C1063   1.404       .  A
C1062      H1067   1.084       .  S
C1063      C1064   1.415       .  A
C1063     Br1071   1.919       .  S
C1064      C1065   1.409       .  A
C1065      C1066   1.399       .  A
C1065      H1068   1.084       .  S
C1066     Br1072   1.919       .  S
C1073      C1074   1.414       .  A
C1073      C1078   1.406       .  A
C1074      C1075   1.396       .  A
C1074     Br1090   1.918       .  S
C1075      C1076   1.399       .  A
C1075      H1079   1.084       .  S
C1076      C1080   1.476       .  S
C1076      C1077   1.407       .  A
C1077      C1078   1.399       .  A
C1077     Br1089   1.918       .  S
C1078      H1081   1.084       .  S
C1080      C1082   1.401       .  A
C1080      C1086   1.407       .  A
C1082      C1083   1.398       .  A
C1082      H1087   1.084       .  S
C1083      C1084   1.413       .  A
C1083     Br1091   1.922       .  S
C1084      C1085   1.405       .  A
C1085      C1086   1.399       .  A
C1085      H1088   1.084       .  S
C1086     Br1092   1.919       .  S
C1093      C1094   1.412       .  A
C1093      C1098   1.404       .  A
C1094      C1095   1.410       .  A
C1094     Br1110   1.918       .  S
C1095      C1096   1.409       .  A
C1095      H1099   1.083       .  S
C1096      C1100   1.494   1_565  S
C1096      C1097   1.410       .  A
C1097      C1098   1.398       .  A
C1097     Br1109   1.921       .  S
C1098      H1101   1.084       .  S
C1100      C1102   1.401       .  A
C1100      C1106   1.413       .  A
C1102      C1103   1.403       .  A
C1102      H1107   1.084       .  S
C1103      C1104   1.420       .  A
C1103     Br1111   1.923       .  S
C1104      C1105   1.406       .  A
C1105      C1106   1.405       .  A
C1105      H1108   1.083       .  S
C1106     Br1112   1.919   1_545  S
C1113      C1114   1.407       .  A
C1113      C1118   1.405       .  A
C1114      C1115   1.402       .  A
C1114     Br1130   1.918       .  S
C1115      C1116   1.406       .  A
C1115      H1119   1.083       .  S
C1116      C1120   1.465       .  S
C1116      C1117   1.401       .  A
C1117      C1118   1.386       .  A
C1117     Br1129   1.921       .  S
C1118      H1121   1.085       .  S
C1120      C1122   1.400       .  A
C1120      C1126   1.406       .  A
C1122      C1123   1.396       .  A
C1122      H1127   1.083       .  S
C1123      C1124   1.411       .  A
C1123     Br1131   1.922       .  S
C1124      C1125   1.404       .  A
C1125      C1126   1.393       .  A
C1125      H1128   1.083       .  S
C1126     Br1132   1.920       .  S
C1133      C1134   1.414       .  A
C1133      C1138   1.405       .  A
C1134      C1135   1.398       .  A
C1134     Br1150   1.921       .  S
C1135      C1136   1.401       .  A
C1135      H1139   1.085       .  S
C1136      C1140   1.487       .  S
C1136      C1137   1.411       .  A
C1137      C1138   1.406       .  A
C1137     Br1149   1.917       .  S
C1138      H1141   1.084       .  S
C1140      C1142   1.401       .  A
C1140      C1146   1.409       .  A
C1142      C1143   1.402       .  A
C1142      H1147   1.085       .  S
C1143      C1144   1.420       .  A
C1143     Br1151   1.922       .  S
C1144      C1145   1.408       .  A
C1145      C1146   1.402       .  A
C1145      H1148   1.084       .  S
C1146     Br1152   1.918       .  S
C1153      C1154   1.419       .  A
C1153      C1158   1.412       .  A
C1154      C1155   1.405       .  A
C1154     Br1170   1.920       .  S
C1155      C1156   1.403       .  A
C1155      H1159   1.083       .  S
C1156      C1160   1.486       .  S
C1156      C1157   1.405       .  A
C1157      C1158   1.401       .  A
C1157     Br1169   1.919       .  S
C1158      H1161   1.083       .  S
C1160      C1162   1.404       .  A
C1160      C1166   1.408       .  A
C1162      C1163   1.404       .  A
C1162      H1167   1.084       .  S
C1163      C1164   1.415       .  A
C1163     Br1171   1.921       .  S
C1164      C1165   1.408       .  A
C1165      C1166   1.399       .  A
C1165      H1168   1.084       .  S
C1166     Br1172   1.919       .  S
C1173      C1174   1.416       .  A
C1173      C1178   1.411       .  A
C1174      C1175   1.406       .  A
C1174     Br1190   1.919       .  S
C1175      C1176   1.404       .  A
C1175      H1179   1.083       .  S
C1176      C1180   1.489       .  S
C1176      C1177   1.405       .  A
C1177      C1178   1.403       .  A
C1177     Br1189   1.918       .  S
C1178      H1181   1.083       .  S
C1180      C1182   1.401       .  A
C1180      C1186   1.406       .  A
C1182      C1183   1.405       .  A
C1182      H1187   1.084       .  S
C1183      C1184   1.420       .  A
C1183     Br1191   1.919       .  S
C1184      C1185   1.411       .  A
C1185      C1186   1.404       .  A
C1185      H1188   1.083       .  S
C1186     Br1192   1.917       .  S
C1193      C1194   1.413       .  A
C1193      C1198   1.409       .  A
C1194      C1195   1.403       .  A
C1194     Br1210   1.920       .  S
C1195      C1196   1.405       .  A
C1195      H1199   1.083   1_565  S
C1196      C1200   1.494   1_565  S
C1196      C1197   1.410       .  A
C1197      C1198   1.404       .  A
C1197     Br1209   1.919       .  S
C1198      H1201   1.083       .  S
C1200      C1202   1.409       .  A
C1200      C1206   1.412       .  A
C1202      C1203   1.409       .  A
C1202      H1207   1.083       .  S
C1203      C1204   1.409       .  A
C1203     Br1211   1.918       .  S
C1204      C1205   1.403       .  A
C1205      C1206   1.399       .  A
C1205      H1208   1.084       .  S
C1206     Br1212   1.921       .  S
C1213      C1214   1.418       .  A
C1213      C1218   1.410       .  A
C1214      C1215   1.405       .  A
C1214     Br1230   1.921       .  S
C1215      C1216   1.406       .  A
C1215      H1219   1.083       .  S
C1216      C1220   1.496       .  S
C1216      C1217   1.410       .  A
C1217      C1218   1.401       .  A
C1217     Br1229   1.920       .  S
C1218      H1221   1.080       .  S
C1220      C1222   1.405       .  A
C1220      C1226   1.410       .  A
C1222      C1223   1.404       .  A
C1222      H1227   1.083       .  S
C1223      C1224   1.417       .  A
C1223     Br1231   1.921       .  S
C1224      C1225   1.410       .  A
C1225      C1226   1.404       .  A
C1225      H1228   1.083       .  S
C1226     Br1232   1.920       .  S
C1233      C1234   1.420       .  A
C1233      C1238   1.410       .  A
C1234      C1235   1.405       .  A
C1234     Br1250   1.921       .  S
C1235      C1236   1.403       .  A
C1235      H1239   1.084       .  S
C1236      C1240   1.484       .  S
C1236      C1237   1.405       .  A
C1237      C1238   1.398       .  A
C1237     Br1249   1.920       .  S
C1238      H1241   1.083       .  S
C1240      C1242   1.399       .  A
C1240      C1246   1.410       .  A
C1242      C1243   1.400       .  A
C1242      H1247   1.084       .  S
C1243      C1244   1.417       .  A
C1243     Br1251   1.921       .  S
C1244      C1245   1.405       .  A
C1245      C1246   1.403       .  A
C1245      H1248   1.083       .  S
C1246     Br1252   1.919       .  S
C1253      C1254   1.418       .  A
C1253      C1258   1.406       .  A
C1254      C1255   1.396       .  A
C1254     Br1270   1.924       .  S
C1255      C1256   1.399       .  A
C1255      H1259   1.085       .  S
C1256      C1260   1.472       .  S
C1256      C1257   1.407       .  A
C1257      C1258   1.396       .  A
C1257     Br1269   1.920       .  S
C1258      H1261   1.084       .  S
C1260      C1262   1.401       .  A
C1260      C1266   1.407       .  A
C1262      C1263   1.396       .  A
C1262      H1267   1.084       .  S
C1263      C1264   1.412       .  A
C1263     Br1271   1.921       .  S
C1264      C1265   1.403       .  A
C1265      C1266   1.396       .  A
C1265      H1268   1.084       .  S
C1266     Br1272   1.919       .  S
C1273      C1274   1.417       .  A
C1273      C1278   1.408       .  A
C1274      C1275   1.400       .  A
C1274     Br1290   1.922       .  S
C1275      C1276   1.400       .  A
C1275      H1279   1.084       .  S
C1276      C1280   1.467       .  S
C1276      C1277   1.401       .  A
C1277      C1278   1.389       .  A
C1277     Br1289   1.921       .  S
C1278      H1281   1.083       .  S
C1280      C1282   1.403       .  A
C1280      C1286   1.405       .  A
C1282      C1283   1.397       .  A
C1282      H1287   1.084       .  S
C1283      C1284   1.405       .  A
C1283     Br1291   1.915       .  S
C1284      C1285   1.402       .  A
C1285      C1286   1.393       .  A
C1285      H1288   1.084       .  S
C1286     Br1292   1.920       .  S
C1293      C1294   1.414       .  A
C1293      C1298   1.404       .  A
C1294      C1295   1.397       .  A
C1294     Br1310   1.920       .  S
C1295      C1296   1.399       .  A
C1295      H1299   1.085       .  S
C1296      C1300   1.479       .  S
C1296      C1297   1.408       .  A
C1297      C1298   1.403       .  A
C1297     Br1309   1.916       .  S
C1298      H1301   1.084       .  S
C1300      C1302   1.401       .  A
C1300      C1306   1.404       .  A
C1302      C1303   1.405       .  A
C1302      H1307   1.083       .  S
C1303      C1304   1.418       .  A
C1303     Br1311   1.919       .  S
C1304      C1305   1.410       .  A
C1305      C1306   1.397       .  A
C1305      H1308   1.083       .  S
C1306     Br1312   1.921       .  S
