geometry optimzed in LAMMPS
_audit_creation_date              2020-12-01 
_audit_creation_method            'lammps2cif' 
_symmetry_space_group_name_H-M    'P1' 
_symmetry_Int_Tables_number       1 
_symmetry_cell_setting            triclinic 
loop_ 
_symmetry_equiv_pos_as_xyz 
  x,y,z 
_cell_length_a                    65.16198544 
_cell_length_b                    76.9800729419496 
_cell_length_c                    46.39819124375253 
_cell_angle_alpha                 90.07859430614693 
_cell_angle_beta                  89.94635867899203 
_cell_angle_gamma                 89.94498865984049 
loop_ 
_atom_site_label 
_atom_site_type_symbol 
_atom_site_fract_x 
_atom_site_fract_y 
_atom_site_fract_z 
_atom_site_charge 
O1          O  0.35191470  0.46158143  0.55400335    -0.78300
C2          C  0.29928188  0.49731203  0.53184056     0.82700
O3          O  0.37795107  0.51918583  0.52950227    -0.79400
O4          O  0.32468695  0.54059853  0.58833859    -0.80900
O5          O  0.32985931  0.48834575  0.64290272    -0.80700
O6          O  0.35899801  0.46195985  0.60091382    -0.79300
Zn7        Zn  0.34350516  0.48650157  0.54532885     1.55700
O8          O  0.30692770  0.50638595  0.62353896    -0.80700
Cd9        Cd  0.35311099  0.48735455  0.61265273     1.59700
Cd10       Cd  0.36933981  0.51905233  0.57299594     1.59600
O11         O  0.37963462  0.49591140  0.63190539    -0.80700
O12         O  0.34646716  0.50170814  0.57843032    -1.91200
Cd13       Cd  0.31980370  0.51406140  0.58472477     1.59900
O14         O  0.39427084  0.51427137  0.60108452    -0.80700
O15         O  0.29897889  0.50886036  0.55163546    -0.79300
C16         C  0.37312714  0.50857243  0.50941267     0.83200
C17         C  0.35802314  0.45398962  0.57687214     0.82900
O18         O  0.31472632  0.48729291  0.52858517    -0.78300
C19         C  0.31287849  0.49656757  0.64404164     0.83700
O20         O  0.36130869  0.49567611  0.51383775    -0.78400
C21         C  0.39465581  0.50551240  0.62451903     0.83800
C22         C  0.34076975  0.55005336  0.58836067     0.84100
O23         O  0.35853535  0.54372444  0.58329130    -0.80800
O24         O  0.34325846  0.79415087  0.69298222    -0.78300
C25         C  0.29333325  0.75583478  0.71615421     0.82700
O26         O  0.37183943  0.73961907  0.72774059    -0.79400
O27         O  0.32457696  0.71269809  0.66356548    -0.80900
O28         O  0.32721736  0.76371228  0.60718309    -0.80700
O29         O  0.35390099  0.79224864  0.64748582    -0.79300
Zn30       Zn  0.33629994  0.76937990  0.70395868     1.55700
O31         O  0.30446555  0.74603384  0.62793423    -0.80700
Cd32       Cd  0.34994217  0.76618541  0.63811810     1.59700
Cd33       Cd  0.36570335  0.73737860  0.68379014     1.59600
O34         O  0.37780459  0.75767463  0.62212369    -0.80700
O35         O  0.34234103  0.75309346  0.67344723    -1.91200
Cd36       Cd  0.31725391  0.73888769  0.66672379     1.59900
O37         O  0.39136795  0.74211226  0.65787849    -0.80700
O38         O  0.29541004  0.74303117  0.69886798    -0.79300
C39         C  0.36471751  0.75050385  0.74601067     0.83200
C40         C  0.35041508  0.80112711  0.67017396     0.82900
O41         O  0.30695180  0.76767641  0.71784279    -0.78300
C42         C  0.31021970  0.75548388  0.60687402     0.83700
O43         O  0.35233502  0.76248976  0.73859927    -0.78400
C44         C  0.39277486  0.74930414  0.63312868     0.83800
C45         C  0.34127720  0.70430149  0.66714491     0.84100
O46         O  0.35774228  0.71184521  0.67514514    -0.80800
O47         O  0.41586968  0.45643592  0.20353916    -0.78300
C48         C  0.46792835  0.49283862  0.22408707     0.82700
O49         O  0.38847713  0.51312497  0.22891281    -0.79400
O50         O  0.44043980  0.53570267  0.16747702    -0.80900
O51         O  0.43720311  0.48262835  0.11495513    -0.80700
O52         O  0.40775013  0.45662525  0.15696731    -0.79300
Zn53       Zn  0.42391259  0.48134822  0.21207487     1.55700
O54         O  0.45942970  0.50124139  0.13438190    -0.80700
Cd55       Cd  0.41366601  0.48195679  0.14496242     1.59700
Cd56       Cd  0.39692436  0.51345791  0.18528443     1.59600
O57         O  0.38710380  0.49041511  0.12574852    -0.80700
O58         O  0.42006297  0.49647390  0.17918055    -1.91200
Cd59       Cd  0.44613300  0.50938106  0.17244704     1.59900
O60         O  0.37218219  0.50830172  0.15724180    -0.80700
O61         O  0.46724599  0.50484104  0.20515478    -0.79300
C62         C  0.39372801  0.50250162  0.24875389     0.83200
C63         C  0.40933212  0.44875278  0.18099548     0.82900
O64         O  0.45302121  0.48229733  0.22742668    -0.78300
C65         C  0.45406573  0.49101829  0.11411367     0.83700
O66         O  0.40615260  0.49002127  0.24412000    -0.78400
C67         C  0.37188149  0.49968733  0.13361856     0.83800
C68         C  0.42411725  0.54487432  0.16804132     0.84100
O69         O  0.40673388  0.53832864  0.17458338    -0.80800
O70         O  0.41543731  0.78760592  0.05498664    -0.78300
C71         C  0.46865283  0.74956751  0.03758884     0.82700
O72         O  0.38915869  0.73313887  0.02374390    -0.79400
O73         O  0.43533359  0.70666663  0.08847918    -0.80900
O74         O  0.43469140  0.75965963  0.14255287    -0.80700
O75         O  0.40515985  0.78602735  0.10077395    -0.79300
Zn76       Zn  0.42546473  0.76287277  0.04659212     1.55700
O77         O  0.45605764  0.74013439  0.12340213    -0.80700
Cd78       Cd  0.41112834  0.76066771  0.11248998     1.59700
Cd79       Cd  0.39463956  0.73187548  0.06802854     1.59600
O80         O  0.38398757  0.75159150  0.13028943    -0.80700
O81         O  0.41849701  0.74719371  0.07763162    -1.91200
Cd82       Cd  0.44304305  0.73266906  0.08501804     1.59900
O83         O  0.36905091  0.73768231  0.09372834    -0.80700
O84         O  0.46510445  0.73638795  0.05347536    -0.79300
C85         C  0.39866441  0.74200277  0.00467892     0.83200
C86         C  0.40742334  0.79451879  0.07740900     0.82900
O87         O  0.45582985  0.76208937  0.03592786    -0.78300
C88         C  0.45120055  0.75071944  0.14342658     0.83700
O89         O  0.41195519  0.75345258  0.01129424    -0.78400
C90         C  0.36841358  0.74408251  0.11918619     0.83800
C91         C  0.41838924  0.69854300  0.08575789     0.84100
O92         O  0.40194732  0.70629228  0.07811130    -0.80800
O93         O  0.05986329  0.51288785  0.28237550    -0.78300
C94         C  0.10458573  0.54785988  0.32525462     0.82700
O95         O  0.12684191  0.48446015  0.27890686    -0.79400
O96         O  0.12940447  0.50831550  0.38109738    -0.80900
O97         O  0.05725991  0.49399654  0.37608806    -0.80700
O98         O  0.04819309  0.48954453  0.30524878    -0.79300
Zn99       Zn  0.08945035  0.51471456  0.29618483     1.55700
O100        O  0.07879052  0.51377466  0.39393217    -0.80700
Cd101      Cd  0.07010697  0.48625509  0.33734028     1.59700
Cd102      Cd  0.11938144  0.48421224  0.32277266     1.59600
O103        O  0.07742235  0.46019516  0.34100390    -0.80700
O104        O  0.09522457  0.50013535  0.32933414    -1.91200
Cd105      Cd  0.10165990  0.51509050  0.36294624     1.59900
O106        O  0.11122654  0.45887347  0.33361881    -0.80700
O107        O  0.10613585  0.54030134  0.34956414    -0.79300
C108        C  0.11896464  0.49340634  0.25851796     0.83200
C109        C  0.04609012  0.50132976  0.28615253     0.82900
O110        O  0.09793193  0.53993083  0.30295415    -0.78300
C111        C  0.06245998  0.50470196  0.39578621     0.83700
O112        O  0.10549481  0.50505613  0.26331173    -0.78400
C113        C  0.09416099  0.45161039  0.33975453     0.83800
C114        C  0.14499869  0.49974567  0.37245474     0.84100
O115        O  0.14445662  0.49075371  0.34925111    -0.80800
O116        O  0.05994985  0.23532322  0.47198211    -0.78300
C117        C  0.10552485  0.20099380  0.43060629     0.82700
O118        O  0.12823399  0.26246261  0.48033095    -0.79400
O119        O  0.12998340  0.24135380  0.37544069    -0.80900
O120        O  0.05880317  0.25635216  0.38273379    -0.80700
O121        O  0.05008633  0.26044556  0.45285674    -0.79300
Zn122      Zn  0.08992354  0.23380528  0.46018342     1.55700
O123        O  0.07920272  0.23606363  0.36371540    -0.80700
Cd124      Cd  0.07221056  0.26363236  0.42096347     1.59700
Cd125      Cd  0.12118864  0.26378332  0.43620310     1.59600
O126        O  0.08066642  0.28941733  0.41630889    -0.80700
O127        O  0.09660757  0.24877033  0.42816047    -1.91200
Cd128      Cd  0.10254087  0.23415148  0.39394335     1.59900
O129        O  0.11415888  0.28939944  0.42606754    -0.80700
O130        O  0.10718401  0.20871281  0.40643058    -0.79300
C131        C  0.11913505  0.25376534  0.50004681     0.83200
C132        C  0.04686439  0.24758493  0.46961036     0.82900
O133        O  0.09870918  0.20879902  0.45293846    -0.78300
C134        C  0.06319928  0.24562528  0.36271528     0.83700
O135        O  0.10503915  0.24288452  0.49419013    -0.78400
C136        C  0.09782612  0.29729506  0.41837298     0.83800
C137        C  0.14576523  0.24947708  0.38448712     0.84100
O138        O  0.14575891  0.25751862  0.40865401    -0.80800
O139        O  0.20339470  0.51468554  0.97547043    -0.78300
C140        C  0.15893198  0.54700466  0.92958756     0.82700
O141        O  0.13889962  0.48318298  0.97739599    -0.79400
O142        O  0.13750704  0.50596695  0.87406600    -0.80900
O143        O  0.21011609  0.49430306  0.88308731    -0.80700
O144        O  0.21797955  0.49186209  0.95439774    -0.79300
Zn145      Zn  0.17439030  0.51474077  0.96031199     1.55700
O146        O  0.18807831  0.51311529  0.86362259    -0.80700
Cd147      Cd  0.19692588  0.48672053  0.92160603     1.59700
Cd148      Cd  0.14730241  0.48288752  0.93373177     1.59600
O149        O  0.19130109  0.46027873  0.91846235    -0.80700
O150        O  0.17066002  0.49959106  0.92756019    -1.91200
Cd151      Cd  0.16429984  0.51400066  0.89327674     1.59900
O152        O  0.15740199  0.45791022  0.92411363    -0.80700
O153        O  0.15817341  0.53929253  0.90531739    -0.79300
C154        C  0.14575117  0.49281154  0.99769676     0.83200
C155        C  0.21835382  0.50411847  0.97296455     0.82900
O156        O  0.16506829  0.53931762  0.95231579    -0.78300
C157        C  0.20486131  0.50455976  0.86281335     0.83700
O158        O  0.15838176  0.50504621  0.99281584    -0.78400
C159        C  0.17495161  0.45115892  0.91901150     0.83800
C160        C  0.12218001  0.49694368  0.88221605     0.84100
O161        O  0.12261619  0.48817074  0.90564206    -0.80800
O162        O  0.19938914  0.23216237  0.78978112    -0.78300
C163        C  0.15384764  0.20073284  0.83802826     0.82700
O164        O  0.13438643  0.26244755  0.78288340    -0.79400
O165        O  0.13226776  0.24490553  0.88998149    -0.80900
O166        O  0.20491315  0.25475656  0.87862105    -0.80700
O167        O  0.21162374  0.25695979  0.80742634    -0.79300
Zn168      Zn  0.16996604  0.23185530  0.80413992     1.55700
O169        O  0.18288064  0.23675763  0.90007205    -0.80700
Cd170      Cd  0.19092175  0.26183956  0.84055007     1.59700
Cd171      Cd  0.14185462  0.26402724  0.82668796     1.59600
O172        O  0.18433625  0.28813389  0.84395903    -0.80700
O173        O  0.16534657  0.24808024  0.83526465    -1.91200
Cd174      Cd  0.15870781  0.23519805  0.87109902     1.59900
O175        O  0.15063960  0.28931870  0.83590031    -0.80700
O176        O  0.15236126  0.20950601  0.86127975    -0.79300
C177        C  0.14156649  0.25218453  0.76366421     0.83200
C178        C  0.21324554  0.24385918  0.79066822     0.82900
O179        O  0.16073408  0.20746839  0.81481980    -0.78300
C180        C  0.19983471  0.24506571  0.89971253     0.83700
O181        O  0.15420997  0.24016244  0.76999194    -0.78400
C182        C  0.16757191  0.29666173  0.84239831     0.83800
C183        C  0.11677301  0.25292733  0.87970597     0.84100
O184        O  0.11699868  0.25928669  0.85424068    -0.80800
O185        O  0.35347421  0.28711170  0.20355887    -0.78300
C186        C  0.29731284  0.25441885  0.22155952     0.82700
O187        O  0.37532176  0.23043231  0.23147554    -0.79400
O188        O  0.32392539  0.20910277  0.16977983    -0.80900
O189        O  0.33111862  0.26079531  0.11362330    -0.80700
O190        O  0.36105600  0.28667904  0.15673128    -0.79300
Zn191      Zn  0.34203462  0.26316582  0.21142703     1.55700
O192        O  0.30783708  0.24304999  0.13291483    -0.80700
Cd193      Cd  0.35396463  0.26145302  0.14480460     1.59700
Cd194      Cd  0.36835924  0.23024948  0.18730843     1.59600
O195        O  0.38063955  0.25183325  0.12707252    -0.80700
O196        O  0.34606501  0.24767960  0.17924029    -1.91200
Cd197      Cd  0.31951217  0.23564684  0.17230366     1.59900
O198        O  0.39405469  0.23454680  0.16068230    -0.80700
O199        O  0.29791025  0.24173440  0.20382759    -0.79300
C200        C  0.36791204  0.24021264  0.25121028     0.83200
C201        C  0.36043833  0.29448273  0.18098175     0.82900
O202        O  0.31246393  0.26475226  0.22423681    -0.78300
C203        C  0.31408464  0.25264845  0.11232892     0.83700
O204        O  0.35593928  0.25278596  0.24536629    -0.78400
C205        C  0.39532447  0.24249206  0.13651487     0.83800
C206        C  0.33980393  0.19943417  0.17108181     0.84100
O207        O  0.35749808  0.20556734  0.17712677    -0.80800
O208        O  0.34760182  0.95618750  0.06194688    -0.78300
C209        C  0.29552394  0.99439139  0.04392163     0.82700
O210        O  0.37545892  0.01074469  0.03047957    -0.79400
O211        O  0.32789667  0.03670635  0.09590884    -0.80900
O212        O  0.33159602  0.98532648  0.15076862    -0.80700
O213        O  0.35833896  0.95748673  0.10751804    -0.79300
Zn214      Zn  0.33909560  0.98106223  0.05271364     1.55700
O215        O  0.30898467  0.00374137  0.13162445    -0.80700
Cd216      Cd  0.35377043  0.98317864  0.11881915     1.59700
Cd217      Cd  0.36905745  0.01272337  0.07430306     1.59600
O218        O  0.38164555  0.99161479  0.13496956    -0.80700
O219        O  0.34579255  0.99671163  0.08412294    -1.91200
Cd220      Cd  0.32087406  0.01069361  0.09241635     1.59900
O221        O  0.39486512  0.00788854  0.09990208    -0.80700
O222        O  0.29827754  0.00680259  0.06173984    -0.79300
C223        C  0.36762664  0.00076439  0.01142683     0.83200
C224        C  0.35541863  0.94903985  0.08421792     0.82900
O225        O  0.30908734  0.98259101  0.04040615    -0.78300
C226        C  0.31496691  0.99406799  0.15221260     0.83700
O227        O  0.35448154  0.98916195  0.01792030    -0.78400
C228        C  0.39645913  0.00033735  0.12432247     0.83800
C229        C  0.34430619  0.04540467  0.09217095     0.84100
O230        O  0.36087180  0.03826499  0.08343808    -0.80800
O231        O  0.41130105  0.29112008  0.55971481    -0.78300
C232        C  0.46370961  0.25407427  0.54079194     0.82700
O233        O  0.38226705  0.23698635  0.53345508    -0.79400
O234        O  0.43177485  0.21036176  0.59224422    -0.80900
O235        O  0.43254655  0.26334786  0.64808540    -0.80700
O236        O  0.40451450  0.29127881  0.60674791    -0.79300
Zn237      Zn  0.41995879  0.26627785  0.55159088     1.55700
O238        O  0.45286077  0.24294223  0.62914930    -0.80700
Cd239      Cd  0.40914362  0.26567277  0.61838600     1.59700
Cd240      Cd  0.39014755  0.23615735  0.57708590     1.59600
O241        O  0.38204340  0.25843388  0.63776410    -0.80700
O242        O  0.41481372  0.25118372  0.58392782    -1.91200
Cd243      Cd  0.43980654  0.23653659  0.58990610     1.59900
O244        O  0.36578552  0.24237373  0.60501071    -0.80700
O245        O  0.46193179  0.24122148  0.55804004    -0.79300
C246        C  0.39033308  0.24584639  0.51310964     0.83200
C247        C  0.40545110  0.29899195  0.58249621     0.82900
O248        O  0.44952747  0.26541721  0.53852644    -0.78300
C249        C  0.44834385  0.25357510  0.64931353     0.83700
O250        O  0.40412823  0.25717327  0.51804032    -0.78400
C251        C  0.36609818  0.25037245  0.62919604     0.83800
C252        C  0.41443728  0.20261493  0.59179571     0.84100
O253        O  0.39776425  0.21073803  0.58668245    -0.80800
O254        O  0.41889583  0.95944258  0.69793681    -0.78300
C255        C  0.46880955  0.99815557  0.72214110     0.82700
O256        O  0.38834477  0.01306672  0.73039107    -0.79400
O257        O  0.43765954  0.04087394  0.67057545    -0.80900
O258        O  0.43818128  0.98994298  0.61272786    -0.80700
O259        O  0.40966213  0.96145280  0.65180517    -0.79300
Zn260      Zn  0.42615729  0.98426267  0.70913602     1.55700
O261        O  0.45907823  0.00852665  0.63499661    -0.80700
Cd262      Cd  0.41419201  0.98739087  0.64211303     1.59700
Cd263      Cd  0.39626584  0.01594611  0.68700853     1.59600
O264        O  0.38687895  0.99579614  0.62394911    -0.80700
O265        O  0.42021520  0.00040566  0.67820509    -1.91200
Cd266      Cd  0.44498479  0.01493739  0.67296763     1.59900
O267        O  0.37174158  0.01079170  0.65922534    -0.80700
O268        O  0.46621696  0.01097387  0.70519302    -0.79300
C269        C  0.39574754  0.00277287  0.74933216     0.83200
C270        C  0.41215906  0.95258193  0.67472973     0.82900
O271        O  0.45559493  0.98596570  0.72376281    -0.78300
C272        C  0.45472627  0.99881650  0.61363835     0.83700
O273        O  0.40931878  0.99146474  0.74302334    -0.78400
C274        C  0.37133699  0.00381846  0.63419160     0.83800
C275        C  0.42093533  0.04933756  0.67288897     0.84100
O276        O  0.40405538  0.04184341  0.67926766    -0.80800
O277        O  0.56412935  0.01026678  0.28179091    -0.78300
C278        C  0.60486873  0.04526306  0.33180601     0.82700
O279        O  0.63192486  0.98365099  0.28138613    -0.79400
O280        O  0.63001790  0.00317331  0.38561877    -0.80900
O281        O  0.55969079  0.98827373  0.37417980    -0.80700
O282        O  0.55184206  0.98696003  0.30407830    -0.79300
Zn283      Zn  0.59314358  0.01257937  0.29832932     1.55700
O284        O  0.57943559  0.00812423  0.39545192    -0.80700
Cd285      Cd  0.57340890  0.98243746  0.33570944     1.59700
Cd286      Cd  0.62251679  0.98152578  0.32409604     1.59600
O287        O  0.58058269  0.95634713  0.33765555    -0.80700
O288        O  0.59818000  0.99711315  0.33057617    -1.91200
Cd289      Cd  0.60321630  0.01107760  0.36600605     1.59900
O290        O  0.61449423  0.95590413  0.33179221    -0.80700
O291        O  0.60717408  0.03703577  0.35543350    -0.79300
C292        C  0.62605887  0.99433467  0.26204650     0.83200
C293        C  0.55003489  0.99895355  0.28534005     0.82900
O294        O  0.59903275  0.03761784  0.30883089    -0.78300
C295        C  0.56362998  0.99834247  0.39522835     0.83700
O296        O  0.61233094  0.00578675  0.26671492    -0.78400
C297        C  0.59757418  0.94816063  0.33680613     0.83800
C298        C  0.64568915  0.99444637  0.37771430     0.84100
O299        O  0.64625403  0.98665002  0.35338030    -0.80800
O300        O  0.55582898  0.73289023  0.47086659    -0.78300
C301        C  0.60191751  0.69947739  0.42763536     0.82700
O302        O  0.62047415  0.76229521  0.48259086    -0.79400
O303        O  0.62915766  0.74230737  0.37836813    -0.80900
O304        O  0.55625243  0.75347392  0.37837013    -0.80700
O305        O  0.54383073  0.75597568  0.44765673    -0.79300
Zn306      Zn  0.58568227  0.73159517  0.45865468     1.55700
O307        O  0.57973711  0.73542333  0.36026377    -0.80700
Cd308      Cd  0.56699324  0.76052002  0.41824818     1.59700
Cd309      Cd  0.61491631  0.76390891  0.43820583     1.59600
O310        O  0.57284890  0.78672602  0.41645661    -0.80700
O311        O  0.59232768  0.74729014  0.42750787    -1.91200
Cd312      Cd  0.60115910  0.73363425  0.39326383     1.59900
O313        O  0.60577410  0.78922242  0.42874037    -0.80700
O314        O  0.60558710  0.70790689  0.40456684    -0.79300
C315        C  0.61260440  0.75190097  0.50100120     0.83200
C316        C  0.54165210  0.74396552  0.46626322     0.82900
O317        O  0.59392163  0.70674304  0.44968630    -0.78300
C318        C  0.56291939  0.74383579  0.35808660     0.83700
O319        O  0.60037737  0.73983907  0.49349787    -0.78400
C320        C  0.58883939  0.79591588  0.42045345     0.83800
C321        C  0.64350800  0.75149470  0.38915184     0.84100
O322        O  0.64126261  0.75944678  0.41319121    -0.80800
O323        O  0.70149286  0.01284953  0.97932056    -0.78300
C324        C  0.65611126  0.04593556  0.93232043     0.82700
O325        O  0.63672232  0.98250055  0.98251621    -0.79400
O326        O  0.63377086  0.00321310  0.87870821    -0.80900
O327        O  0.70640164  0.99295212  0.88561649    -0.80700
O328        O  0.71494782  0.99016549  0.95632397    -0.79300
Zn329      Zn  0.67218078  0.01395461  0.96390776     1.55700
O330        O  0.68370695  0.01119813  0.86623196    -0.80700
Cd331      Cd  0.69368679  0.98540509  0.92427407     1.59700
Cd332      Cd  0.64514617  0.98132110  0.93916628     1.59600
O333        O  0.68836330  0.95900600  0.92086618    -0.80700
O334        O  0.66781705  0.99839629  0.93154231    -1.91200
Cd335      Cd  0.66055214  0.01229065  0.89692771     1.59900
O336        O  0.65491016  0.95621658  0.92961766    -0.80700
O337        O  0.65425388  0.03769880  0.90860693    -0.79300
C338        C  0.64219667  0.99340123  0.00180342     0.83200
C339        C  0.71609859  0.00201203  0.97549584     0.82900
O340        O  0.66352940  0.03872939  0.95476894    -0.78300
C341        C  0.70059937  0.00280707  0.86513194     0.83700
O342        O  0.65468320  0.00568663  0.99636098    -0.78400
C343        C  0.67226243  0.94968210  0.92280712     0.83800
C344        C  0.61901914  0.99390057  0.88800578     0.84100
O345        O  0.62013339  0.98589528  0.91206980    -0.80800
O346        O  0.70669124  0.73255624  0.78957578    -0.78300
C347        C  0.66134550  0.70041667  0.83661156     0.82700
O348        O  0.64046706  0.76055270  0.77792665    -0.79400
O349        O  0.63574400  0.74448106  0.88522459    -0.80900
O350        O  0.70848673  0.75655123  0.87563469    -0.80700
O351        O  0.71592006  0.75885015  0.80445236    -0.79300
Zn352      Zn  0.67686096  0.73149713  0.80241596     1.55700
O353        O  0.68646618  0.73914452  0.89853228    -0.80700
Cd354      Cd  0.69467957  0.76274523  0.83726269     1.59700
Cd355      Cd  0.64601572  0.76293414  0.82200080     1.59600
O356        O  0.68646206  0.78856483  0.84052055    -0.80700
O357        O  0.67008095  0.74798206  0.83226535    -1.91200
Cd358      Cd  0.66329325  0.73557800  0.86843706     1.59900
O359        O  0.65293616  0.78875116  0.83109970    -0.80700
O360        O  0.65885079  0.70942489  0.85947403    -0.79300
C361        C  0.64903453  0.75045619  0.75961887     0.83200
C362        C  0.71919991  0.74530061  0.78923918     0.82900
O363        O  0.66851010  0.70705750  0.81351280    -0.78300
C364        C  0.70324324  0.74769317  0.89761952     0.83700
O365        O  0.66194118  0.73890550  0.76717258    -0.78400
C366        C  0.66940829  0.79658531  0.83833802     0.83800
C367        C  0.62003624  0.75154587  0.87371588     0.84100
O368        O  0.62050721  0.75734379  0.84789590    -0.80800
O369        O  0.84279999  0.79430762  0.20330592    -0.78300
C370        C  0.79715797  0.75231465  0.22832113     0.82700
O371        O  0.87785936  0.74049710  0.23012526    -0.79400
O372        O  0.82860835  0.71222406  0.17115523    -0.80900
O373        O  0.82438593  0.76436581  0.11701492    -0.80700
O374        O  0.85078477  0.79375267  0.15664067    -0.79300
Zn375      Zn  0.83859389  0.76878539  0.21360174     1.55700
O376        O  0.80470487  0.74480482  0.13916694    -0.80700
Cd377      Cd  0.84848754  0.76775080  0.14577617     1.59700
Cd378      Cd  0.86904453  0.73853195  0.18707298     1.59600
O379        O  0.87617007  0.76165091  0.12631015    -0.80700
O380        O  0.84419713  0.75349915  0.18105611    -1.91200
Cd381      Cd  0.82013070  0.73798031  0.17588542     1.59900
O382        O  0.89271638  0.74547490  0.15866703    -0.80700
O383        O  0.79957870  0.74045531  0.20943170    -0.79300
C384        C  0.87197238  0.75111377  0.24965116     0.83200
C385        C  0.84814996  0.80204333  0.18016009     0.82900
O386        O  0.81008368  0.76468675  0.23093781    -0.78300
C387        C  0.80826222  0.75497320  0.11813728     0.83700
O388        O  0.85825582  0.76259262  0.24508123    -0.78400
C389        C  0.89231219  0.75377957  0.13480692     0.83800
C390        C  0.84588526  0.70446591  0.17201068     0.84100
O391        O  0.86241488  0.71261321  0.17792913    -0.80800
O392        O  0.84789569  0.46187233  0.05941267    -0.78300
C393        C  0.79583662  0.49857578  0.03717153     0.82700
O394        O  0.87594453  0.51625383  0.02598636    -0.79400
O395        O  0.82551936  0.54290458  0.08713267    -0.80900
O396        O  0.82868601  0.49225555  0.14608485    -0.80700
O397        O  0.85699180  0.46402925  0.10546677    -0.79300
Zn398      Zn  0.83948615  0.48645504  0.04900469     1.55700
O399        O  0.80655711  0.51025565  0.12489344    -0.80700
Cd400      Cd  0.85171102  0.48991265  0.11517216     1.59700
Cd401      Cd  0.86810261  0.51927306  0.06976381     1.59600
O402        O  0.87922850  0.49845718  0.13176830    -0.80700
O403        O  0.84484192  0.50299515  0.07951165    -1.91200
Cd404      Cd  0.81933110  0.51662775  0.08576389     1.59900
O405        O  0.89330827  0.51443750  0.09689544    -0.80700
O406        O  0.79743115  0.51123046  0.05478301    -0.79300
C407        C  0.86926486  0.50490340  0.00814375     0.83200
C408        C  0.85508541  0.45516261  0.08239759     0.82900
O409        O  0.81018248  0.48742260  0.03430085    -0.78300
C410        C  0.81188768  0.50081330  0.14614563     0.83700
O411        O  0.85626574  0.49346951  0.01565214    -0.78400
C412        C  0.89440324  0.50682416  0.12136771     0.83800
C413        C  0.84181881  0.55192674  0.08457537     0.84100
O414        O  0.85902469  0.54498033  0.07789589    -0.80800
O415        O  0.91900072  0.45331401  0.69920147    -0.78300
C416        C  0.96676720  0.49243450  0.72490947     0.82700
O417        O  0.88594602  0.50761198  0.72878709    -0.79400
O418        O  0.93639768  0.53548998  0.67230878    -0.80900
O419        O  0.93682173  0.48474942  0.61361626    -0.80700
O420        O  0.91107223  0.45474163  0.65261328    -0.79300
Zn421      Zn  0.92376814  0.47852848  0.71078508     1.55700
O422        O  0.95786982  0.50381887  0.63446387    -0.80700
Cd423      Cd  0.91387991  0.48088374  0.64356222     1.59700
Cd424      Cd  0.89492294  0.50987427  0.68612021     1.59600
O425        O  0.88624494  0.48766805  0.62542496    -0.80700
O426        O  0.91930102  0.49451942  0.67908934    -1.91200
Cd427      Cd  0.94428718  0.50931064  0.67384721     1.59900
O428        O  0.87065051  0.50416178  0.65825856    -0.80700
O429        O  0.96579236  0.50455418  0.70617535    -0.79300
C430        C  0.89111933  0.49648612  0.74779636     0.83200
C431        C  0.91355998  0.44605469  0.67568443     0.82900
O432        O  0.95230775  0.48137920  0.72763507    -0.78300
C433        C  0.95289997  0.49417971  0.61319671     0.83700
O434        O  0.90428245  0.48460131  0.74277539    -0.78400
C435        C  0.87051578  0.49591033  0.63435959     0.83800
C436        C  0.91922726  0.54348237  0.67319081     0.84100
O437        O  0.90244722  0.53552377  0.67818892    -0.80800
O438        O  0.91627852  0.78574719  0.56099721    -0.78300
C439        C  0.96889845  0.74949894  0.54084984     0.82700
O440        O  0.88993053  0.72957607  0.52872882    -0.79400
O441        O  0.94032047  0.70605897  0.59354597    -0.80900
O442        O  0.93220954  0.75796288  0.64808914    -0.80700
O443        O  0.90346958  0.78363254  0.60539113    -0.79300
Zn444      Zn  0.92446239  0.76099039  0.55075458     1.55700
O445        O  0.95624739  0.74037803  0.63014962    -0.80700
Cd446      Cd  0.91003756  0.75825522  0.61642597     1.59700
Cd447      Cd  0.89703629  0.72757563  0.57254862     1.59600
O448        O  0.88354865  0.74800684  0.63354160    -0.80700
O449        O  0.91913761  0.74491781  0.58204146    -1.91200
Cd450      Cd  0.94524060  0.73251980  0.59066329     1.59900
O451        O  0.87111734  0.73070115  0.59925504    -0.80700
O452        O  0.96769387  0.73771330  0.56008500    -0.79300
C453        C  0.89563417  0.74098042  0.51038983     0.83200
C454        C  0.90738145  0.79246346  0.58284654     0.82900
O455        O  0.95402757  0.75995444  0.53637920    -0.78300
C456        C  0.94939504  0.75015079  0.65016496     0.83700
O457        O  0.90766967  0.75336484  0.51713739    -0.78400
C458        C  0.86939716  0.73824688  0.62373482     0.83800
C459        C  0.92466505  0.69639931  0.58972156     0.84100
O460        O  0.90752015  0.70258070  0.58122525    -0.80800
O461        O  0.70064503  0.51237605  0.48119983    -0.78300
C462        C  0.66238323  0.54734958  0.42911312     0.82700
O463        O  0.63480692  0.48485774  0.47938623    -0.79400
O464        O  0.63719962  0.50631438  0.37590021    -0.80900
O465        O  0.70916559  0.49073528  0.38939818    -0.80700
O466        O  0.71437067  0.48902453  0.46052651    -0.79300
Zn467      Zn  0.67245516  0.51462742  0.46317363     1.55700
O468        O  0.68879811  0.50942874  0.36640700    -0.80700
Cd469      Cd  0.69409448  0.48454105  0.42696555     1.59700
Cd470      Cd  0.64468732  0.48308919  0.43653181     1.59600
O471        O  0.68704359  0.45837860  0.42382673    -0.80700
O472        O  0.66883737  0.49896808  0.43081693    -1.91200
Cd473      Cd  0.66459513  0.51298435  0.39522084     1.59900
O474        O  0.65298231  0.45747862  0.42773819    -0.80700
O475        O  0.66117936  0.53909805  0.40533108    -0.79300
C476        C  0.63964103  0.49597988  0.49869134     0.83200
C477        C  0.71504431  0.50121030  0.47915497     0.82900
O478        O  0.66701243  0.53970915  0.45257792    -0.78300
C479        C  0.70514737  0.50028151  0.36771425     0.83700
O480        O  0.65275550  0.50790655  0.49408564    -0.78400
C481        C  0.67019140  0.44996374  0.42343295     0.83800
C482        C  0.62139847  0.49781527  0.38389901     0.84100
O483        O  0.62116848  0.48914845  0.40740292    -0.80800
O484        O  0.70162406  0.23512340  0.28967474    -0.78300
C485        C  0.65931920  0.19872515  0.33309593     0.82700
O486        O  0.63402555  0.26059737  0.28154537    -0.79400
O487        O  0.62977779  0.23882803  0.38509238    -0.80900
O488        O  0.70182812  0.25428998  0.38218464    -0.80700
O489        O  0.71191959  0.25901166  0.31235597    -0.79300
Zn490      Zn  0.67212546  0.23203406  0.30257283     1.55700
O491        O  0.68045594  0.23449009  0.40021662    -0.80700
Cd492      Cd  0.68916293  0.26175817  0.34341336     1.59700
Cd493      Cd  0.64039197  0.26218265  0.32586520     1.59600
O494        O  0.68071333  0.28756576  0.34742379    -0.80700
O495        O  0.66483414  0.24702244  0.33462403    -1.91200
Cd496      Cd  0.65813151  0.23240939  0.36856863     1.59900
O497        O  0.64746406  0.28785989  0.33607157    -0.80700
O498        O  0.65554098  0.20677692  0.35649083    -0.79300
C499        C  0.64239961  0.25104472  0.26222190     0.83200
C500        C  0.71488265  0.24704586  0.29375398     0.82900
O501        O  0.66620235  0.20655031  0.31087236    -0.78300
C502        C  0.69671012  0.24366199  0.40197078     0.83700
O503        O  0.65602739  0.23981197  0.26851650    -0.78400
C504        C  0.66374620  0.29563211  0.34433656     0.83800
C505        C  0.61428260  0.24722007  0.37573572     0.84100
O506        O  0.61506536  0.25589778  0.35223555    -0.80800
O507        O  0.56388548  0.51527123  0.78329278    -0.78300
C508        C  0.60895211  0.54615222  0.83269811     0.82700
O509        O  0.62600284  0.48235445  0.77845958    -0.79400
O510        O  0.63042161  0.50238179  0.88308769    -0.80900
O511        O  0.55703746  0.49314621  0.87545865    -0.80700
O512        O  0.54868993  0.49241878  0.80337159    -0.79300
Zn513      Zn  0.59287713  0.51503149  0.79896148     1.55700
O514        O  0.58048001  0.51006368  0.89643972    -0.80700
Cd515      Cd  0.56953376  0.48623323  0.83602506     1.59700
Cd516      Cd  0.61840617  0.48141968  0.82217190     1.59600
O517        O  0.57437768  0.45954030  0.83833304    -0.80700
O518        O  0.59607294  0.49874152  0.83038328    -1.91200
Cd519      Cd  0.60353735  0.51183934  0.86579350     1.59900
O520        O  0.60809679  0.45656602  0.83179110    -0.80700
O521        O  0.61001845  0.53751897  0.85607762    -0.79300
C522        C  0.62100637  0.49366020  0.75958756     0.83200
C523        C  0.54869057  0.50489977  0.78522526     0.82900
O524        O  0.60217958  0.53938070  0.80948700    -0.78300
C525        C  0.56329725  0.50211258  0.89686981     0.83700
O526        O  0.60967030  0.50662079  0.76580119    -0.78400
C527        C  0.59051034  0.45011913  0.83744915     0.83800
C528        C  0.64521103  0.49333650  0.87310343     0.84100
O529        O  0.64391729  0.48562489  0.84874354    -0.80800
O530        O  0.55878079  0.23435355  0.97241666    -0.78300
C531        C  0.60351498  0.19966902  0.92995650     0.82700
O532        O  0.62725509  0.26094512  0.97920052    -0.79400
O533        O  0.62827829  0.23967056  0.87480601    -0.80900
O534        O  0.55731683  0.25540723  0.88197107    -0.80700
O535        O  0.54842450  0.25897713  0.95214516    -0.79300
Zn536      Zn  0.58850360  0.23255804  0.95957528     1.55700
O537        O  0.57744820  0.23474013  0.86352509    -0.80700
Cd538      Cd  0.57060273  0.26239319  0.92050917     1.59700
Cd539      Cd  0.61982593  0.26276326  0.93515227     1.59600
O540        O  0.57868966  0.28828637  0.91734047    -0.80700
O541        O  0.59514066  0.24764425  0.92759338    -1.91200
Cd542      Cd  0.60084735  0.23286210  0.89351368     1.59900
O543        O  0.61234353  0.28863547  0.92604384    -0.80700
O544        O  0.60541581  0.20739616  0.90584394    -0.79300
C545        C  0.61863018  0.25184755  0.99886473     0.83200
C546        C  0.54550734  0.24642121  0.96959484     0.82900
O547        O  0.59664254  0.20749054  0.95220059    -0.78300
C548        C  0.56159691  0.24445738  0.86222551     0.83700
O549        O  0.60444363  0.24105840  0.99303757    -0.78400
C550        C  0.59566438  0.29643127  0.91942085     0.83800
C551        C  0.64426356  0.24764481  0.88346906     0.84100
O552        O  0.64437680  0.25613754  0.90725358    -0.80800
O553        O  0.06009554  0.01368828  0.79103805    -0.78300
C554        C  0.10677458  0.04527146  0.83601310     0.82700
O555        O  0.12526474  0.98311680  0.78249305    -0.79400
O556        O  0.12928600  0.00178716  0.88830875    -0.80900
O557        O  0.05635731  0.99261197  0.88063189    -0.80700
O558        O  0.04757811  0.98947502  0.81018987    -0.79300
Zn559      Zn  0.08978740  0.01385499  0.80400664     1.55700
O560        O  0.07901392  0.01089130  0.90006124    -0.80700
Cd561      Cd  0.06918530  0.98476593  0.84210867     1.59700
Cd562      Cd  0.11800884  0.98124681  0.82640091     1.59600
O563        O  0.07503971  0.95846804  0.84488541    -0.80700
O564        O  0.09503203  0.99785625  0.83524380    -1.91200
Cd565      Cd  0.10263055  0.01128566  0.87016585     1.59900
O566        O  0.10843545  0.95590015  0.83513843    -0.80700
O567        O  0.10918061  0.03666811  0.85920364    -0.79300
C568        C  0.11795410  0.99332008  0.76331938     0.83200
C569        C  0.04589306  0.00236881  0.79311865     0.82900
O570        O  0.09899264  0.03841463  0.81349308    -0.78300
C571        C  0.06191148  0.00283715  0.90080832     0.83700
O572        O  0.10518287  0.00526404  0.76967453    -0.78400
C573        C  0.09118480  0.94923475  0.84214472     0.83800
C574        C  0.14431709  0.99305268  0.87822997     0.84100
O575        O  0.14334745  0.98570915  0.85349100    -0.80800
O576        O  0.06159110  0.73507752  0.97971701    -0.78300
C577        C  0.09920673  0.69855879  0.92912647     0.82700
O578        O  0.12941706  0.76017351  0.97681292    -0.79400
O579        O  0.12621876  0.73876091  0.87393975    -0.80900
O580        O  0.05519342  0.75545912  0.88616260    -0.80700
O581        O  0.04828141  0.75795235  0.95732769    -0.79300
Zn582      Zn  0.08986035  0.73184589  0.96202534     1.55700
O583        O  0.07529774  0.73532982  0.86606245    -0.80700
Cd584      Cd  0.06947472  0.76184934  0.92435960     1.59700
Cd585      Cd  0.11918823  0.76225493  0.93444279     1.59600
O586        O  0.07726207  0.78792679  0.92169781    -0.80700
O587        O  0.09445093  0.74702728  0.92931865    -1.91200
Cd588      Cd  0.09918788  0.73245422  0.89456782     1.59900
O589        O  0.11122798  0.78791990  0.92730030    -0.80700
O590        O  0.10184087  0.70662443  0.90548008    -0.79300
C591        C  0.12376604  0.74970163  0.99660271     0.83200
C592        C  0.04727016  0.74623324  0.97670628     0.82900
O593        O  0.09406864  0.70646301  0.95217975    -0.78300
C594        C  0.05933950  0.74491363  0.86575886     0.83700
O595        O  0.10982970  0.73836393  0.99268011    -0.78400
C596        C  0.09440676  0.79590519  0.92257541     0.83800
C597        C  0.14188510  0.74773007  0.88087013     0.84100
O598        O  0.14230808  0.75662772  0.90416662    -0.80800
O599        O  0.20504750  0.01293565  0.47534861    -0.78300
C600        C  0.15852029  0.04730825  0.43358249     0.82700
O601        O  0.13562713  0.98648590  0.48040264    -0.79400
O602        O  0.13750963  0.00631406  0.37475564    -0.80900
O603        O  0.20701336  0.99258874  0.38485573    -0.80700
O604        O  0.21521072  0.98829411  0.45470233    -0.79300
Zn605      Zn  0.17509460  0.01466902  0.46269774     1.55700
O606        O  0.18777276  0.01422800  0.36781425    -0.80700
Cd607      Cd  0.19325733  0.98507542  0.42283825     1.59700
Cd608      Cd  0.14391749  0.98507263  0.43677373     1.59600
O609        O  0.18494974  0.95921476  0.41897319    -0.80700
O610        O  0.16884475  0.99988891  0.43015538    -1.91200
Cd611      Cd  0.16332934  0.01463123  0.39618407     1.59900
O612        O  0.15127517  0.95935258  0.42763743    -0.80700
O613        O  0.15668387  0.03956215  0.40944031    -0.79300
C614        C  0.14453563  0.99476722  0.50077665     0.83200
C615        C  0.21827786  0.00081658  0.47222108     0.82900
O616        O  0.16613680  0.03973180  0.45559123    -0.78300
C617        C  0.20340256  0.00429164  0.36611295     0.83700
O618        O  0.15911618  0.00537623  0.49588243    -0.78400
C619        C  0.16777796  0.95134456  0.42093428     0.83800
C620        C  0.12129351  0.99849099  0.38293126     0.84100
O621        O  0.12015214  0.99129310  0.40774994    -0.80800
O622        O  0.20098424  0.73571925  0.27827101    -0.78300
C623        C  0.15548453  0.70224147  0.32489217     0.82700
O624        O  0.13539312  0.76580540  0.27600776    -0.79400
O625        O  0.13249467  0.74447280  0.37953749    -0.80900
O626        O  0.20494597  0.75491430  0.37211546    -0.80700
O627        O  0.21419853  0.75809382  0.30217800    -0.79300
Zn628      Zn  0.17145664  0.73443266  0.29369796     1.55700
O629        O  0.18257287  0.73631929  0.39124762    -0.80700
Cd630      Cd  0.19245472  0.76272420  0.33369805     1.59700
Cd631      Cd  0.14374490  0.76690480  0.31946365     1.59600
O632        O  0.18714613  0.78906380  0.33759608    -0.80700
O633        O  0.16661295  0.74979609  0.32634720    -1.91200
Cd634      Cd  0.15932690  0.73570241  0.36077424     1.59900
O635        O  0.15365736  0.79197846  0.32922084    -0.80700
O636        O  0.15318327  0.71044867  0.34854639    -0.79300
C637        C  0.14100369  0.75505002  0.25651036     0.83200
C638        C  0.21562003  0.74642221  0.28275970     0.82900
O639        O  0.16312114  0.70949304  0.30260406    -0.78300
C640        C  0.19937934  0.74478939  0.39233825     0.83700
O641        O  0.15371214  0.74284223  0.26158194    -0.78400
C642        C  0.17104571  0.79842866  0.33601796     0.83800
C643        C  0.11763621  0.75387546  0.37080333     0.84100
O644        O  0.11867952  0.76223794  0.34702584    -0.80800
O645        O  0.84835652  0.28633221  0.69855576    -0.78300
C646        C  0.79804423  0.24833612  0.72196552     0.82700
O647        O  0.87915815  0.23328044  0.73137735    -0.79400
O648        O  0.83009855  0.20444111  0.67176091    -0.80900
O649        O  0.82961460  0.25591972  0.61356173    -0.80700
O650        O  0.85783935  0.28463063  0.65254904    -0.79300
Zn651      Zn  0.84114807  0.26153725  0.70929707     1.55700
O652        O  0.80857148  0.23656727  0.63375013    -0.80700
Cd653      Cd  0.85325367  0.25856931  0.64302341     1.59700
Cd654      Cd  0.87123703  0.23025892  0.68795314     1.59600
O655        O  0.88033370  0.24998915  0.62458634    -0.80700
O656        O  0.84688485  0.24527375  0.67863288    -1.91200
Cd657      Cd  0.82192965  0.23055763  0.67302070     1.59900
O658        O  0.89574047  0.23522470  0.65977303    -0.80700
O659        O  0.79999781  0.23527760  0.70513857    -0.79300
C660        C  0.87139979  0.24354252  0.75013505     0.83200
C661        C  0.85513971  0.29339039  0.67559283     0.82900
O662        O  0.81185573  0.26003016  0.72334622    -0.78300
C663        C  0.81334504  0.24669562  0.61304480     0.83700
O664        O  0.85767079  0.25458642  0.74342067    -0.78400
C665        C  0.89593541  0.24201622  0.63461512     0.83800
C666        C  0.84709966  0.19638097  0.67487032     0.84100
O667        O  0.86365468  0.20435721  0.68125176    -0.80800
O668        O  0.85221905  0.95464210  0.56139011    -0.78300
C669        C  0.79824143  0.98982315  0.53947149     0.82700
O670        O  0.87805897  0.01003605  0.53633859    -0.79400
O671        O  0.82598772  0.03423897  0.59356580    -0.80900
O672        O  0.82601988  0.98072603  0.64797746    -0.80700
O673        O  0.85842710  0.95514193  0.60857442    -0.79300
Zn674      Zn  0.84180575  0.97897080  0.55299616     1.55700
O675        O  0.80537763  0.00059186  0.62838104    -0.80700
Cd676      Cd  0.85073341  0.98021198  0.62009581     1.59700
Cd677      Cd  0.86930164  0.01032978  0.57979876     1.59600
O678        O  0.87597299  0.98947510  0.64163757    -0.80700
O679        O  0.84533014  0.99433203  0.58539934    -1.91200
Cd680      Cd  0.81951978  0.00786882  0.59026220     1.59900
O681        O  0.89316233  0.00480471  0.60886385    -0.80700
O682        O  0.79920894  0.00280390  0.55660616    -0.79300
C683        C  0.87061607  0.00097933  0.51573093     0.83200
C684        C  0.85848885  0.94728675  0.58438569     0.82900
O685        O  0.81254193  0.97850943  0.53848947    -0.78300
C686        C  0.80971360  0.98990228  0.64848958     0.83700
O687        O  0.85749581  0.98904379  0.52025183    -0.78400
C688        C  0.89199562  0.99765240  0.63369852     0.83800
C689        C  0.84280760  0.04273828  0.59423302     0.84100
O690        O  0.86011490  0.03542679  0.58981853    -0.80800
O691        O  0.91416656  0.29327067  0.06401716    -0.78300
C692        C  0.96582299  0.25427410  0.04554628     0.82700
O693        O  0.88554642  0.23904039  0.03229049    -0.79400
O694        O  0.93263993  0.21233307  0.09775461    -0.80900
O695        O  0.93110342  0.26468697  0.15156545    -0.80700
O696        O  0.90302286  0.29182406  0.10939206    -0.79300
Zn697      Zn  0.92258693  0.26827016  0.05472689     1.55700
O698        O  0.95283950  0.24554115  0.13227640    -0.80700
Cd699      Cd  0.90817556  0.26623679  0.12070376     1.59700
Cd700      Cd  0.89193429  0.23695058  0.07629574     1.59600
O701        O  0.88096352  0.25736068  0.13819372    -0.80700
O702        O  0.91559405  0.25260679  0.08587752    -1.91200
Cd703      Cd  0.94020026  0.23822058  0.09371805     1.59900
O704        O  0.86661991  0.24183934  0.10298707    -0.80700
O705        O  0.96259396  0.24163027  0.06267761    -0.79300
C706        C  0.89400314  0.24870436  0.01328752     0.83200
C707        C  0.90614681  0.30036195  0.08626904     0.82900
O708        O  0.95266837  0.26645783  0.04259487    -0.78300
C709        C  0.94759811  0.25575822  0.15260026     0.83700
O710        O  0.90740303  0.26006578  0.01992682    -0.78400
C711        C  0.86581050  0.24889230  0.12794473     0.83800
C712        C  0.91595957  0.20393494  0.09447379     0.84100
O713        O  0.89957902  0.21133560  0.08572747    -0.80800
O714        O  0.91354463  0.96166955  0.20318658    -0.78300
C715        C  0.96591809  0.99741753  0.22503494     0.82700
O716        O  0.88672716  0.01734280  0.23525388    -0.79400
O717        O  0.93744599  0.04190746  0.17493624    -0.80900
O718        O  0.93184447  0.99150309  0.11579130    -0.80700
O719        O  0.90449260  0.96326004  0.15697057    -0.79300
Zn720      Zn  0.92176664  0.98633755  0.21357759     1.55700
O721        O  0.95485976  0.00922306  0.13583693    -0.80700
Cd722      Cd  0.90931454  0.98916838  0.14715882     1.59700
Cd723      Cd  0.89410278  0.01924001  0.19147748     1.59600
O724        O  0.88171551  0.99779069  0.13077148    -0.80700
O725        O  0.91696196  0.00247001  0.18234505    -1.91200
Cd726      Cd  0.94301585  0.01550002  0.17577601     1.59900
O727        O  0.86863742  0.01526558  0.16445981    -0.80700
O728        O  0.96503881  0.00987910  0.20696386    -0.79300
C729        C  0.89357127  0.00681490  0.25424756     0.83200
C730        C  0.90682092  0.95462655  0.18015595     0.82900
O731        O  0.95110566  0.98673746  0.22772260    -0.78300
C732        C  0.94868028  0.99995191  0.11477127     0.83700
O733        O  0.90591622  0.99458728  0.24772652    -0.78400
C734        C  0.86706992  0.00709849  0.14052132     0.83800
C735        C  0.92134762  0.05120234  0.17763850     0.84100
O736        O  0.90394910  0.04453351  0.18376281    -0.80800
C737        C  0.91544710  0.18527968  0.10242039    -0.03000
C738        C  0.89679007  0.17615600  0.10333111    -0.05600
C739        C  0.89610646  0.15908390  0.11357621    -0.20700
C740        C  0.91399353  0.15070396  0.12319483     0.25000
C741        C  0.93279372  0.15967311  0.12138197    -0.18300
C742        C  0.93345823  0.17675037  0.11123026    -0.08200
C743        C  0.91224088  0.13261710  0.13441290    -0.18500
C744        C  0.92738549  0.12407106  0.14822969    -0.23300
C745        C  0.92547762  0.10570698  0.15755782     0.27100
C746        C  0.94308018  0.09522674  0.15758299    -0.20100
C747        C  0.94180856  0.07764574  0.16476215    -0.09700
C748        C  0.92289330  0.07017999  0.17248882    -0.10300
C749        C  0.90539761  0.08087827  0.17371515    -0.03200
C750        C  0.90666472  0.09847230  0.16632612    -0.18300
H751        H  0.88260841  0.18233091  0.09677133     0.10800
H752        H  0.88144079  0.15248440  0.11440716     0.10800
H753        H  0.94711594  0.15372464  0.12762826     0.10500
H754        H  0.94812120  0.18335610  0.11065524     0.11600
H755        H  0.89777280  0.12598504  0.13075924     0.11700
H756        H  0.94214111  0.13018279  0.15164174     0.13600
H757        H  0.95778520  0.10054979  0.15121344     0.10100
H758        H  0.95561958  0.06983505  0.16369955     0.12200
H759        H  0.89063845  0.07559804  0.17987960     0.08800
H760        H  0.89292749  0.10635285  0.16751347     0.11600
C761        C  0.88831997  0.00916360  0.28508476    -0.03000
C762        C  0.87252307  0.02037619  0.29409599    -0.05600
C763        C  0.86860847  0.02282817  0.32356645    -0.20700
C764        C  0.88076684  0.01451234  0.34441003     0.25000
C765        C  0.89650395  0.00331740  0.33533308    -0.18300
C766        C  0.90017130  0.00063979  0.30609784    -0.08200
C767        C  0.87571300  0.01622610  0.37542625    -0.18500
C768        C  0.88999946  0.01488947  0.39632271    -0.23300
C769        C  0.88457608  0.01230604  0.42704614     0.27100
C770        C  0.89794336  0.01793130  0.44891369    -0.20100
C771        C  0.89358968  0.01440320  0.47795919    -0.09700
C772        C  0.87609254  0.00473858  0.48540365    -0.10300
C773        C  0.86293510  0.99898049  0.46336253    -0.03200
C774        C  0.86706286  0.00275638  0.43462037    -0.18300
H775        H  0.86317102  0.02714458  0.27843367     0.10800
H776        H  0.85614711  0.03128610  0.33012160     0.10800
H777        H  0.90569266  0.99623262  0.35079040     0.10500
H778        H  0.91253115  0.99195946  0.29999487     0.11600
H779        H  0.85967271  0.01794227  0.38119526     0.11700
H780        H  0.90618444  0.01493851  0.39066292     0.13600
H781        H  0.91173375  0.02506980  0.44349010     0.10100
H782        H  0.90397469  0.01901677  0.49447883     0.12200
H783        H  0.84923885  0.99159030  0.46830370     0.08800
H784        H  0.85680445  0.99771145  0.41830453     0.11600
C785        C  0.87741979  0.24240057  0.78087812    -0.03000
C786        C  0.89324848  0.23136084  0.79030499    -0.05600
C787        C  0.89776027  0.22997988  0.81978828    -0.20700
C788        C  0.88622372  0.23927373  0.84025688     0.25000
C789        C  0.87064667  0.25046035  0.83073937    -0.18300
C790        C  0.86633343  0.25201352  0.80149350    -0.08200
C791        C  0.89125889  0.23806714  0.87133172    -0.18500
C792        C  0.87680717  0.23964547  0.89199187    -0.23300
C793        C  0.88171181  0.24121232  0.92305981     0.27100
C794        C  0.86728740  0.23583723  0.94373535    -0.20100
C795        C  0.87113029  0.23814021  0.97321022    -0.09700
C796        C  0.88923741  0.24631864  0.98237920    -0.10300
C797        C  0.90350607  0.25188098  0.96158258    -0.03200
C798        C  0.89984601  0.24930344  0.93230113    -0.18300
H799        H  0.90205409  0.22378900  0.77497738     0.10800
H800        H  0.91006646  0.22147403  0.82666801     0.10800
H801        H  0.86195461  0.25827574  0.84584961     0.10500
H802        H  0.85405532  0.26068351  0.79511407     0.11600
H803        H  0.90718361  0.23591818  0.87725818     0.11700
H804        H  0.86070491  0.23997551  0.88593785     0.13600
H805        H  0.85304983  0.22980529  0.93704104     0.10100
H806        H  0.85987966  0.23374163  0.98875353     0.12200
H807        H  0.91768249  0.25814189  0.96794688     0.08800
H808        H  0.91099334  0.25409184  0.91694891     0.11600
C809        C  0.84780087  0.17730974  0.66988854    -0.03000
C810        C  0.86631419  0.16803458  0.67267531    -0.05600
C811        C  0.86729859  0.15036849  0.66558655    -0.20700
C812        C  0.84990779  0.14160126  0.65525804     0.25000
C813        C  0.83118329  0.15068785  0.65364118    -0.18300
C814        C  0.83017991  0.16832614  0.66078589    -0.08200
C815        C  0.85185132  0.12302970  0.64659386    -0.18500
C816        C  0.83922503  0.11532801  0.62741141    -0.23300
C817        C  0.84087432  0.09680336  0.61846920     0.27100
C818        C  0.82337318  0.08853941  0.60736121    -0.20100
C819        C  0.82401437  0.07106159  0.59913075    -0.09700
C820        C  0.84233007  0.06152427  0.60129428    -0.10300
C821        C  0.86005149  0.06993260  0.61151483    -0.03200
C822        C  0.85934642  0.08736286  0.62009108    -0.18300
H823        H  0.88016835  0.17449140  0.67981002     0.10800
H824        H  0.88184199  0.14363212  0.66748225     0.10800
H825        H  0.81721618  0.14427310  0.64698160     0.10500
H826        H  0.81561387  0.17498945  0.65870857     0.11600
H827        H  0.86441033  0.11569153  0.65593197     0.11700
H828        H  0.82677447  0.12275212  0.61798917     0.13600
H829        H  0.80901908  0.09556103  0.60552208     0.10100
H830        H  0.81014082  0.06499715  0.59115861     0.12200
H831        H  0.87441776  0.06294125  0.61340517     0.08800
H832        H  0.87334216  0.09337193  0.62763530     0.11600
C833        C  0.10357260  0.99799980  0.36267983    -0.03000
C834        C  0.10578549  0.00465842  0.33461819    -0.05600
C835        C  0.08933240  0.00468103  0.31536850    -0.20700
C836        C  0.07010563  0.99807032  0.32341514     0.25000
C837        C  0.06781069  0.99130279  0.35151359    -0.18300
C838        C  0.08440476  0.99122044  0.37085199    -0.08200
C839        C  0.05307429  0.99910067  0.30187463    -0.18500
C840        C  0.03443258  0.99169681  0.30491507    -0.23300
C841        C  0.01762841  0.99314642  0.28310664     0.27100
C842        C  0.00125262  0.98133289  0.28446071    -0.20100
C843        C  0.98477981  0.98247286  0.26522187    -0.09700
C844        C  0.98414513  0.99557266  0.24412210    -0.10300
C845        C  0.00054987  0.00739269  0.24262100    -0.03200
C846        C  0.01705219  0.00625732  0.26190256    -0.18300
H847        H  0.12029603  0.00995435  0.32741321     0.10800
H848        H  0.09166601  0.01001071  0.29400982     0.10800
H849        H  0.05328447  0.98629130  0.35899115     0.10500
H850        H  0.08214648  0.98604677  0.39231239     0.11600
H851        H  0.05644695  0.00606097  0.28213473     0.11700
H852        H  0.03130026  0.98376582  0.32367966     0.13600
H853        H  0.00113266  0.97118737  0.30062406     0.10100
H854        H  0.97236840  0.97320921  0.26720881     0.12200
H855        H  0.00046722  0.01776594  0.22687512     0.08800
H856        H  0.02893729  0.01599296  0.26047775     0.11600
C857        C  0.16685726  0.93249269  0.41426946    -0.03000
C858        C  0.14786529  0.92393959  0.41212459    -0.05600
C859        C  0.14690493  0.90652952  0.40358473    -0.20700
C860        C  0.16484285  0.89724846  0.39685598     0.25000
C861        C  0.18392711  0.90560724  0.40009081    -0.18300
C862        C  0.18488615  0.92303915  0.40856052    -0.08200
C863        C  0.16286912  0.87893669  0.38678274    -0.18500
C864        C  0.17762518  0.87035372  0.37213374    -0.23300
C865        C  0.17539529  0.85212180  0.36196260     0.27100
C866        C  0.19313935  0.84204653  0.35811867    -0.20100
C867        C  0.19176151  0.82474730  0.34912866    -0.09700
C868        C  0.17256186  0.81716454  0.34335859    -0.10300
C869        C  0.15481919  0.82743658  0.34623891    -0.03200
C870        C  0.15619890  0.84472565  0.35543439    -0.18300
H871        H  0.13366779  0.93079501  0.41642699     0.10800
H872        H  0.13201607  0.90038749  0.40163833     0.10800
H873        H  0.19819805  0.89882350  0.39627232     0.10500
H874        H  0.19978992  0.92915900  0.41035879     0.11600
H875        H  0.14843362  0.87244507  0.39122914     0.11700
H876        H  0.19217038  0.87664258  0.36774413     0.13600
H877        H  0.20812689  0.84748449  0.36264604     0.10100
H878        H  0.20576012  0.81725555  0.34703990     0.12200
H879        H  0.13980299  0.82204251  0.34182892     0.08800
H880        H  0.14222458  0.85224989  0.35712887     0.11600
C881        C  0.13237072  0.75106239  0.02571572    -0.03000
C882        C  0.13683294  0.73584781  0.04103838    -0.05600
C883        C  0.14025196  0.73650217  0.07065971    -0.20700
C884        C  0.13862857  0.75228698  0.08560416     0.25000
C885        C  0.13534987  0.76770848  0.07002643    -0.18300
C886        C  0.13240530  0.76709344  0.04015033    -0.08200
C887        C  0.13978189  0.75186654  0.11742328    -0.18500
C888        C  0.12918887  0.76270783  0.13476984    -0.23300
C889        C  0.12912541  0.76050451  0.16653311     0.27100
C890        C  0.12775491  0.77511413  0.18460479    -0.20100
C891        C  0.13008629  0.77334520  0.21450486    -0.09700
C892        C  0.13373276  0.75690444  0.22658078    -0.10300
C893        C  0.13330686  0.74219874  0.20868415    -0.03200
C894        C  0.13085470  0.74394745  0.17903360    -0.18300
H895        H  0.13676116  0.72335142  0.03025991     0.10800
H896        H  0.14301187  0.72449415  0.08218547     0.10800
H897        H  0.13460443  0.78013706  0.08090597     0.10500
H898        H  0.12877140  0.77895085  0.02868404     0.11600
H899        H  0.14860646  0.74133843  0.12684321     0.11700
H900        H  0.12053795  0.77344115  0.12569169     0.13600
H901        H  0.12595906  0.78796613  0.17546559     0.10100
H902        H  0.13033683  0.78488206  0.22788173     0.12200
H903        H  0.13566599  0.72933523  0.21753954     0.08800
H904        H  0.13081968  0.73231557  0.16590797     0.11600
C905        C  0.96133527  0.99925418  0.08827756    -0.03000
C906        C  0.95619620  0.98800458  0.06554151    -0.05600
C907        C  0.96799708  0.98765747  0.04038786    -0.20700
C908        C  0.98501136  0.99865943  0.03724283     0.25000
C909        C  0.99031736  0.00978008  0.06013406    -0.18300
C910        C  0.97857796  0.01007808  0.08532111    -0.08200
C911        C  0.99722067  0.99761178  0.01028409    -0.18500
C912        C  0.00958073  0.01041211  0.00080022    -0.23300
C913        C  0.02229113  0.00877966  0.97439937     0.27100
C914        C  0.04052669  0.01837804  0.97237905    -0.20100
C915        C  0.05337399  0.01658788  0.94841503    -0.09700
C916        C  0.04808585  0.00527427  0.92581398    -0.10300
C917        C  0.02943957  0.99615311  0.92738665    -0.03200
C918        C  0.01664212  0.99792142  0.95133952    -0.18300
H919        H  0.94307028  0.97944715  0.06717009     0.10800
H920        H  0.96372178  0.97883211  0.02320018     0.10800
H921        H  0.00370030  0.01803765  0.05905611     0.10500
H922        H  0.98302821  0.01884328  0.10248890     0.11600
H923        H  0.99587788  0.98570186  0.99788578     0.11700
H924        H  0.01111978  0.02231387  0.01315277     0.13600
H925        H  0.04507017  0.02700829  0.98970030     0.10100
H926        H  0.06752368  0.02393979  0.94773920     0.12200
H927        H  0.02473647  0.98753336  0.91015064     0.08800
H928        H  0.00230649  0.99085857  0.95152974     0.11600
C929        C  0.02738364  0.00398103  0.77459720    -0.03000
C930        C  0.02464603  0.01859042  0.75684427    -0.05600
C931        C  0.00798247  0.01958724  0.73791387    -0.20700
C932        C  0.99358023  0.00607097  0.73623028     0.25000
C933        C  0.99620223  0.99149041  0.75423148    -0.18300
C934        C  0.01282940  0.99053154  0.77327019    -0.08200
C935        C  0.97670824  0.00739163  0.71457159    -0.18500
C936        C  0.95945596  0.99776481  0.71552404    -0.23300
C937        C  0.94250877  0.99879605  0.69401544     0.27100
C938        C  0.92340402  0.99185045  0.70170576    -0.20100
C939        C  0.90712404  0.99175171  0.68222256    -0.09700
C940        C  0.90946629  0.99852406  0.65425506    -0.10300
C941        C  0.92855117  0.00561597  0.64643420    -0.03200
C942        C  0.94495805  0.00570515  0.66606509    -0.18300
H943        H  0.03555401  0.02918814  0.75725377     0.10800
H944        H  0.00644871  0.03093770  0.72429627     0.10800
H945        H  0.98590361  0.98051644  0.75320881     0.10500
H946        H  0.01456595  0.97900971  0.78642112     0.11600
H947        H  0.97840038  0.01710806  0.69782096     0.11700
H948        H  0.95704343  0.98907668  0.73359223     0.13600
H949        H  0.92104087  0.98638096  0.72296329     0.10100
H950        H  0.89267125  0.98621144  0.68913901     0.12200
H951        H  0.93090772  0.01083435  0.62502167     0.08800
H952        H  0.95955562  0.01080421  0.65896263     0.11600
C953        C  0.12335602  0.99101132  0.73251596    -0.03000
C954        C  0.13982399  0.98045448  0.72376887    -0.05600
C955        C  0.14402399  0.97806848  0.69437683    -0.20700
C956        C  0.13158596  0.98584938  0.67327322     0.25000
C957        C  0.11523106  0.99649204  0.68209456    -0.18300
C958        C  0.11120828  0.99904755  0.71129752    -0.08200
C959        C  0.13692506  0.98389118  0.64233097    -0.18500
C960        C  0.12309433  0.98556478  0.62086712    -0.23300
C961        C  0.12904630  0.98676594  0.59002715     0.27100
C962        C  0.11483724  0.98240765  0.56838456    -0.20100
C963        C  0.11974511  0.98469373  0.53916388    -0.09700
C964        C  0.13878144  0.99179098  0.53124468    -0.10300
C965        C  0.15290727  0.99612034  0.55298220    -0.03200
C966        C  0.14813982  0.99364708  0.58192874    -0.18300
H967        H  0.14947722  0.97413333  0.73958434     0.10800
H968        H  0.15695765  0.97005821  0.68808331     0.10800
H969        H  0.10577410  0.00322394  0.66654080     0.10500
H970        H  0.09836864  0.00726246  0.71722092     0.11600
H971        H  0.15287063  0.98119243  0.63715822     0.11700
H972        H  0.10685740  0.98644167  0.62597910     0.13600
H973        H  0.09989355  0.97730728  0.57412469     0.10100
H974        H  0.10856831  0.98125207  0.52287944     0.12200
H975        H  0.16777903  0.00151866  0.54764496     0.08800
H976        H  0.15923815  0.99771277  0.59788472     0.11600
C977        C  0.09499038  0.81485686  0.91685137    -0.03000
C978        C  0.11384451  0.82370924  0.91599826    -0.05600
C979        C  0.11468625  0.84119373  0.90806918    -0.20700
C980        C  0.09677752  0.85024194  0.90057651     0.25000
C981        C  0.07777502  0.84161627  0.90257370    -0.18300
C982        C  0.07692169  0.82410147  0.91055355    -0.08200
C983        C  0.09870654  0.86860467  0.89098762    -0.18500
C984        C  0.08461128  0.87682006  0.87469981    -0.23300
C985        C  0.08689069  0.89511894  0.86503798     0.27100
C986        C  0.06914579  0.90495272  0.85993416    -0.20100
C987        C  0.07056177  0.92239420  0.85187147    -0.09700
C988        C  0.08981602  0.93035134  0.84825348    -0.10300
C989        C  0.10761997  0.92029032  0.85211083    -0.03200
C990        C  0.10619218  0.90285692  0.86044992    -0.18300
H991        H  0.12806474  0.81703898  0.92085079     0.10800
H992        H  0.12948699  0.84756649  0.90709771     0.10800
H993        H  0.06351826  0.84827331  0.89809261     0.10500
H994        H  0.06211833  0.81773578  0.91132560     0.11600
H995        H  0.11261875  0.87542424  0.89707362     0.11700
H996        H  0.07058486  0.87018028  0.86865850     0.13600
H997        H  0.05410433  0.89923442  0.86289496     0.10100
H998        H  0.05652991  0.92971066  0.84883510     0.12200
H999        H  0.12268043  0.92598302  0.84930181     0.08800
H1000       H  0.12021226  0.89550210  0.86312448     0.11600
C1001       C  0.66297776  0.24649272  0.86503750    -0.03000
C1002       C  0.66383067  0.23392712  0.84299168    -0.05600
C1003       C  0.68090755  0.23260057  0.82494923    -0.20700
C1004       C  0.69760138  0.24391484  0.82797667     0.25000
C1005       C  0.69701552  0.25643169  0.85023152    -0.18300
C1006       C  0.67988227  0.25764386  0.86865902    -0.08200
C1007       C  0.71533563  0.24168567  0.80788056    -0.18500
C1008       C  0.72869976  0.25439576  0.80096037    -0.23300
C1009       C  0.74601350  0.25235077  0.77991688     0.27100
C1010       C  0.76098990  0.26543422  0.77871877    -0.20100
C1011       C  0.77759853  0.26422684  0.75967274    -0.09700
C1012       C  0.77971427  0.24988784  0.74105660    -0.10300
C1013       C  0.76455517  0.23690815  0.74174671    -0.03200
C1014       C  0.74788675  0.23811704  0.76084216    -0.18300
H1015       H  0.65125549  0.22496418  0.83966008     0.10800
H1016       H  0.68095951  0.22273698  0.80825501     0.10800
H1017       H  0.70981683  0.26509681  0.85378809     0.10500
H1018       H  0.67978846  0.26738003  0.88553072     0.11600
H1019       H  0.71678238  0.22905767  0.79773582     0.11700
H1020       H  0.72693883  0.26703656  0.81107380     0.13600
H1021       H  0.75996554  0.27662474  0.79284036     0.10100
H1022       H  0.78891481  0.27451763  0.75976816     0.12200
H1023       H  0.76562546  0.22572316  0.72763848     0.08800
H1024       H  0.73655927  0.22789766  0.76021142     0.11600
C1025       C  0.59599211  0.31536251  0.91300558    -0.03000
C1026       C  0.61441980  0.32481900  0.91386889    -0.05600
C1027       C  0.61486399  0.34232191  0.90570031    -0.20700
C1028       C  0.59697927  0.35081453  0.89629200     0.25000
C1029       C  0.57837741  0.34150588  0.89640368    -0.18300
C1030       C  0.57793457  0.32401421  0.90458189    -0.08200
C1031       C  0.59856585  0.36928532  0.88670763    -0.18500
C1032       C  0.58400133  0.37775482  0.87149756    -0.23300
C1033       C  0.58613561  0.39611994  0.86185852     0.27100
C1034       C  0.56835406  0.40610610  0.85760540    -0.20100
C1035       C  0.56970857  0.42351723  0.84913131    -0.09700
C1036       C  0.58892311  0.43129375  0.84426148    -0.10300
C1037       C  0.60670724  0.42109479  0.84749258    -0.03200
C1038       C  0.60534901  0.40372342  0.85618265    -0.18300
H1039       H  0.62860334  0.31862652  0.92037063     0.10800
H1040       H  0.62937479  0.34917074  0.90620160     0.10800
H1041       H  0.56406098  0.34754329  0.89031089     0.10500
H1042       H  0.56340904  0.31720135  0.90391367     0.11600
H1043       H  0.61261104  0.37609072  0.89218751     0.11700
H1044       H  0.56971055  0.37132262  0.86623047     0.13600
H1045       H  0.55335040  0.40051152  0.86143414     0.10100
H1046       H  0.55568923  0.43093944  0.84673920     0.12200
H1047       H  0.62175675  0.42660692  0.84374992     0.08800
H1048       H  0.61937101  0.39629031  0.85816631     0.11600
C1049       C  0.79963983  0.24772831  0.58762837    -0.03000
C1050       C  0.80431638  0.25890444  0.56461810    -0.05600
C1051       C  0.79147078  0.25982211  0.54059309    -0.20700
C1052       C  0.77380095  0.24948384  0.53882007     0.25000
C1053       C  0.76893375  0.23843495  0.56196392    -0.18300
C1054       C  0.78175102  0.23755749  0.58607417    -0.08200
C1055       C  0.76064453  0.25102537  0.51285784    -0.18500
C1056       C  0.74810523  0.23831215  0.50345344    -0.23300
C1057       C  0.73530980  0.23983226  0.47705290     0.27100
C1058       C  0.71821126  0.22890588  0.47391459    -0.20100
C1059       C  0.70565516  0.23005221  0.44954661    -0.09700
C1060       C  0.71006635  0.24208792  0.42765263    -0.10300
C1061       C  0.72747141  0.25272074  0.43047415    -0.03200
C1062       C  0.73999287  0.25157449  0.45477532    -0.18300
H1063       H  0.81791662  0.26696810  0.56512988     0.10800
H1064       H  0.79546573  0.26854614  0.52316196     0.10800
H1065       H  0.75510273  0.23068729  0.56185307     0.10500
H1066       H  0.77759233  0.22892763  0.60354130     0.11600
H1067       H  0.76181595  0.26306647  0.50087934     0.11700
H1068       H  0.74693856  0.22629933  0.51554885     0.13600
H1069       H  0.71441402  0.21957777  0.49054672     0.10100
H1070       H  0.69247453  0.22155249  0.44791981     0.12200
H1071       H  0.73148107  0.26198514  0.41385403     0.08800
H1072       H  0.75344907  0.25974943  0.45562480     0.11600
C1073       C  0.84695122  0.24727480  0.14586042    -0.03000
C1074       C  0.83053030  0.23660489  0.13739414    -0.05600
C1075       C  0.81294063  0.23518543  0.15468452    -0.20700
C1076       C  0.81130011  0.24434952  0.18085339     0.25000
C1077       C  0.82778695  0.25505312  0.18922932    -0.18300
C1078       C  0.84534877  0.25639978  0.17205275    -0.08200
C1079       C  0.79192754  0.24282508  0.19803266    -0.18500
C1080       C  0.78968551  0.24867411  0.22534621    -0.23300
C1081       C  0.77016603  0.24787353  0.24214076     0.27100
C1082       C  0.76786344  0.25900044  0.26595809    -0.20100
C1083       C  0.74998739  0.25873149  0.28266454    -0.09700
C1084       C  0.73398882  0.24714289  0.27620292    -0.10300
C1085       C  0.73633347  0.23583952  0.25255044    -0.03200
C1086       C  0.75419604  0.23618375  0.23569738    -0.18300
H1087       H  0.83126716  0.22932347  0.11743260     0.10800
H1088       H  0.80052515  0.22689028  0.14753291     0.10800
H1089       H  0.82726803  0.26275212  0.20867397     0.10500
H1090       H  0.85764418  0.26480059  0.17925500     0.11600
H1091       H  0.77895971  0.23680726  0.18734606     0.11700
H1092       H  0.80251296  0.25477688  0.23614376     0.13600
H1093       H  0.77992576  0.26806363  0.27158051     0.10100
H1094       H  0.74874707  0.26759118  0.30073648     0.12200
H1095       H  0.72431905  0.22672961  0.24697632     0.08800
H1096       H  0.75548540  0.22706113  0.21805552     0.11600
C1097       C  0.63729565  0.25330984  0.23131294    -0.03000
C1098       C  0.62015463  0.26294380  0.22227193    -0.05600
C1099       C  0.61611856  0.26509019  0.19278763    -0.20700
C1100       C  0.62939838  0.25803684  0.17192238     0.25000
C1101       C  0.64652175  0.24844730  0.18102615    -0.18300
C1102       C  0.65037888  0.24609857  0.21029012    -0.08200
C1103       C  0.62428550  0.25955852  0.14087755    -0.18500
C1104       C  0.63859685  0.25929141  0.11983799    -0.23300
C1105       C  0.63321533  0.25797773  0.08885220     0.27100
C1106       C  0.64632671  0.26498377  0.06777859    -0.20100
C1107       C  0.64176037  0.26317405  0.03835997    -0.09700
C1108       C  0.62424412  0.25393945  0.02962749    -0.10300
C1109       C  0.61139409  0.24671689  0.05086837    -0.03200
C1110       C  0.61579124  0.24871274  0.08002668    -0.18300
H1111       H  0.60982076  0.26866484  0.23791768     0.10800
H1112       H  0.60263874  0.27232140  0.18623546     0.10800
H1113       H  0.65670619  0.24233866  0.16560741     0.10500
H1114       H  0.66379388  0.23865125  0.21641539     0.11600
H1115       H  0.60817207  0.26076269  0.13521558     0.11700
H1116       H  0.65476855  0.25990766  0.12540363     0.13600
H1117       H  0.66004213  0.27194709  0.07411748     0.10100
H1118       H  0.65196266  0.26884011  0.02253223     0.12200
H1119       H  0.59774944  0.23950333  0.04501877     0.08800
H1120       H  0.60574520  0.24261214  0.09559198     0.11600
C1121       C  0.63082146  0.49498576  0.52788216    -0.03000
C1122       C  0.62715257  0.51041791  0.54317451    -0.05600
C1123       C  0.62263340  0.50996649  0.57251835    -0.20700
C1124       C  0.62231428  0.49413381  0.58736346     0.25000
C1125       C  0.62498683  0.47856145  0.57189526    -0.18300
C1126       C  0.62901703  0.47899172  0.54219986    -0.08200
C1127       C  0.61986084  0.49465145  0.61904533    -0.18500
C1128       C  0.63014866  0.48408717  0.63712910    -0.23300
C1129       C  0.63005944  0.48685649  0.66884842     0.27100
C1130       C  0.63273650  0.47269130  0.68753887    -0.20100
C1131       C  0.63119674  0.47495424  0.71747368    -0.09700
C1132       C  0.62706513  0.49146848  0.72908186    -0.10300
C1133       C  0.62594204  0.50578414  0.71042286    -0.03200
C1134       C  0.62755550  0.50354331  0.68072101    -0.18300
H1135       H  0.62848937  0.52290203  0.53257932     0.10800
H1136       H  0.62043892  0.52210327  0.58397326     0.10800
H1137       H  0.62433737  0.46614398  0.58278136     0.10500
H1138       H  0.63193692  0.46694157  0.53083747     0.11600
H1139       H  0.61073132  0.50523946  0.62771175     0.11700
H1140       H  0.63910960  0.47335759  0.62855934     0.13600
H1141       H  0.63517535  0.45976876  0.67892542     0.10100
H1142       H  0.63213745  0.46368537  0.73135722     0.12200
H1143       H  0.62315351  0.51872746  0.71875383     0.08800
H1144       H  0.62661057  0.51493670  0.66716372     0.11600
C1145       C  0.66285457  0.31445042  0.35136418    -0.03000
C1146       C  0.64396641  0.32327325  0.35236997    -0.05600
C1147       C  0.64306156  0.34075555  0.36060104    -0.20700
C1148       C  0.66095011  0.34983845  0.36816818     0.25000
C1149       C  0.67993636  0.34113080  0.36642358    -0.18300
C1150       C  0.68083636  0.32364169  0.35827015    -0.08200
C1151       C  0.65913185  0.36840039  0.37707385    -0.18500
C1152       C  0.67355515  0.37691000  0.39242320    -0.23300
C1153       C  0.67197019  0.39553266  0.40089103     0.27100
C1154       C  0.69010506  0.40468183  0.40680447    -0.20100
C1155       C  0.68950478  0.42223763  0.41451265    -0.09700
C1156       C  0.67067347  0.43106127  0.41689926    -0.10300
C1157       C  0.65244023  0.42179846  0.41171297    -0.03200
C1158       C  0.65305558  0.40423227  0.40379819    -0.18300
H1159       H  0.62980677  0.31660625  0.34721962     0.10800
H1160       H  0.62825624  0.34715141  0.36145008     0.10800
H1161       H  0.69420641  0.34772634  0.37096867     0.10500
H1162       H  0.69567256  0.31730653  0.35745088     0.11600
H1163       H  0.64521325  0.37516599  0.37085379     0.11700
H1164       H  0.68748323  0.37019187  0.39868557     0.13600
H1165       H  0.70486802  0.39827949  0.40500703     0.10100
H1166       H  0.70385074  0.42892672  0.41840225     0.12200
H1167       H  0.63766713  0.42817396  0.41343175     0.08800
H1168       H  0.63868781  0.39753642  0.40033966     0.11600
C1169       C  0.90077065  0.81079823  0.58183139    -0.03000
C1170       C  0.88214650  0.81573298  0.59472610    -0.05600
C1171       C  0.87518605  0.83286018  0.59281186    -0.20700
C1172       C  0.88703891  0.84550223  0.57887685     0.25000
C1173       C  0.90586020  0.84067452  0.56633110    -0.18300
C1174       C  0.91253823  0.82338127  0.56746737    -0.08200
C1175       C  0.87904489  0.86347168  0.57695546    -0.18500
C1176       C  0.89108515  0.87747520  0.58043659    -0.23300
C1177       C  0.88258195  0.89532594  0.58087063     0.27100
C1178       C  0.89015850  0.90732957  0.60093340    -0.20100
C1179       C  0.88202510  0.92411343  0.60233359    -0.09700
C1180       C  0.86659611  0.92937302  0.58306476    -0.10300
C1181       C  0.85941787  0.91751372  0.56238728    -0.03200
C1182       C  0.86717753  0.90055388  0.56150915    -0.18300
H1183       H  0.87270893  0.80622248  0.60568121     0.10800
H1184       H  0.86059128  0.83629555  0.60246724     0.10800
H1185       H  0.91513360  0.85016254  0.55507172     0.10500
H1186       H  0.92692905  0.81985309  0.55732896     0.11600
H1187       H  0.86255076  0.86519784  0.57502850     0.11700
H1188       H  0.90721832  0.87572767  0.58558509     0.13600
H1189       H  0.90212270  0.90360122  0.61589701     0.10100
H1190       H  0.88803186  0.93308630  0.61822932     0.12200
H1191       H  0.84763308  0.92129047  0.54718967     0.08800
H1192       H  0.86134717  0.89160355  0.54546539     0.11600
C1193       C  0.96159751  0.75213104  0.67675753    -0.03000
C1194       C  0.95405333  0.76184489  0.70017326    -0.05600
C1195       C  0.96524217  0.76291445  0.72577564    -0.20700
C1196       C  0.98399294  0.75414726  0.72852012     0.25000
C1197       C  0.99184693  0.74488512  0.70482212    -0.18300
C1198       C  0.98072414  0.74384066  0.67926156    -0.08200
C1199       C  0.99527819  0.75514720  0.75607771    -0.18500
C1200       C  0.00722066  0.74205713  0.76541550    -0.23300
C1201       C  0.01974529  0.74283850  0.79196847     0.27100
C1202       C  0.03631955  0.73132088  0.79452882    -0.20100
C1203       C  0.04906419  0.73187575  0.81861066    -0.09700
C1204       C  0.04537352  0.74390435  0.84080490    -0.10300
C1205       C  0.02843513  0.75513432  0.83865958    -0.03200
C1206       C  0.01569147  0.75459403  0.81452025    -0.18300
H1207       H  0.93939762  0.76843894  0.69886925     0.10800
H1208       H  0.95905870  0.77031042  0.74367362     0.10800
H1209       H  0.00666840  0.73856203  0.70582078     0.10500
H1210       H  0.98709227  0.73643568  0.66151380     0.11600
H1211       H  0.99344409  0.76687620  0.76876973     0.11700
H1212       H  0.00847942  0.73032064  0.75252097     0.13600
H1213       H  0.03964808  0.72204108  0.77757292     0.10100
H1214       H  0.06190536  0.72296189  0.81969372     0.12200
H1215       H  0.02507821  0.76444263  0.85554820     0.08800
H1216       H  0.00268261  0.76329764  0.81388092     0.11600
C1217       C  0.98782980  0.75075525  0.52293917    -0.03000
C1218       C  0.00515313  0.74063175  0.52957526    -0.05600
C1219       C  0.02270080  0.74121199  0.51220725    -0.20700
C1220       C  0.02340978  0.75174325  0.48751820     0.25000
C1221       C  0.00619254  0.76210187  0.48101373    -0.18300
C1222       C  0.98863428  0.76161706  0.49856585    -0.08200
C1223       C  0.04262030  0.75173817  0.46989698    -0.18500
C1224       C  0.04383281  0.75680753  0.44203691    -0.23300
C1225       C  0.06309354  0.75605780  0.42437079     0.27100
C1226       C  0.06391457  0.76509855  0.39803844    -0.20100
C1227       C  0.08154449  0.76455385  0.38061049    -0.09700
C1228       C  0.09880201  0.75483455  0.38903276    -0.10300
C1229       C  0.09791216  0.74568966  0.41525159    -0.03200
C1230       C  0.08035144  0.74620561  0.43258600    -0.18300
H1231       H  0.00516084  0.73217135  0.54820223     0.10800
H1232       H  0.03574847  0.73320112  0.51794803     0.10800
H1233       H  0.00624146  0.77076162  0.46269504     0.10500
H1234       H  0.97560055  0.76964134  0.49286377     0.11600
H1235       H  0.05622874  0.74690986  0.48061600     0.11700
H1236       H  0.03017099  0.76166779  0.43141056     0.13600
H1237       H  0.05084882  0.77266817  0.39091717     0.10100
H1238       H  0.08161873  0.77169089  0.36052227     0.12200
H1239       H  0.11080846  0.73793218  0.42240920     0.08800
H1240       H  0.08042967  0.73853661  0.45204371     0.11600
C1241       C  0.86042141  0.31210825  0.67580155    -0.03000
C1242       C  0.85067627  0.32362989  0.69495335    -0.05600
C1243       C  0.85580825  0.34129390  0.69510738    -0.20700
C1244       C  0.87124997  0.34765232  0.67685932     0.25000
C1245       C  0.88112728  0.33613170  0.65785772    -0.18300
C1246       C  0.87560369  0.31856920  0.65712376    -0.08200
C1247       C  0.87613178  0.36646746  0.67697776    -0.18500
C1248       C  0.89544680  0.37251767  0.67484588    -0.23300
C1249       C  0.90005269  0.39137413  0.67494670     0.27100
C1250       C  0.91652043  0.39774601  0.69132298    -0.20100
C1251       C  0.92087642  0.41557157  0.69188839    -0.09700
C1252       C  0.90932302  0.42719457  0.67515264    -0.10300
C1253       C  0.89324209  0.42071539  0.65808284    -0.03200
C1254       C  0.88847577  0.40300748  0.65825935    -0.18300
H1255       H  0.83888294  0.31902166  0.70951573     0.10800
H1256       H  0.84788338  0.34998754  0.70974811     0.10800
H1257       H  0.89281618  0.34077313  0.64316523     0.10500
H1258       H  0.88341796  0.30997956  0.64220642     0.11600
H1259       H  0.86359535  0.37557276  0.68033374     0.11700
H1260       H  0.90823356  0.36345000  0.67459139     0.13600
H1261       H  0.92574351  0.38895521  0.70412705     0.10100
H1262       H  0.93341178  0.42025331  0.70508931     0.12200
H1263       H  0.88407742  0.42942294  0.64503399     0.08800
H1264       H  0.87592735  0.39835834  0.64504981     0.11600
C1265       C  0.73287619  0.50232170  0.49898373    -0.03000
C1266       C  0.73333282  0.51465118  0.52137636    -0.05600
C1267       C  0.75006295  0.51547807  0.54023863    -0.20700
C1268       C  0.76668742  0.50399014  0.53730401     0.25000
C1269       C  0.76637987  0.49185481  0.51452631    -0.18300
C1270       C  0.74963604  0.49098480  0.49576352    -0.08200
C1271       C  0.78425305  0.50546786  0.55776376    -0.18500
C1272       C  0.79811866  0.49271844  0.56192945    -0.23300
C1273       C  0.81634537  0.49427978  0.58100012     0.27100
C1274       C  0.83332265  0.48366719  0.57510656    -0.20100
C1275       C  0.85081969  0.48436329  0.59233004    -0.09700
C1276       C  0.85173555  0.49555215  0.61627842    -0.10300
C1277       C  0.83464275  0.50608645  0.62251430    -0.03200
C1278       C  0.81709974  0.50549774  0.60500424    -0.18300
H1279       H  0.72071371  0.52362765  0.52444284     0.10800
H1280       H  0.74995059  0.52507939  0.55733946     0.10800
H1281       H  0.77911427  0.48317469  0.51059013     0.10500
H1282       H  0.74991464  0.48146820  0.47855113     0.11600
H1283       H  0.78574258  0.51755023  0.56967074     0.11700
H1284       H  0.79662739  0.48059339  0.55020478     0.13600
H1285       H  0.83311706  0.47483872  0.55689008     0.10100
H1286       H  0.86361204  0.47597930  0.58692421     0.12200
H1287       H  0.83482283  0.51477318  0.64089512     0.08800
H1288       H  0.80410452  0.51355498  0.61067631     0.11600
C1289       C  0.91856779  0.56237772  0.66688413    -0.03000
C1290       C  0.89965502  0.57093201  0.66337502    -0.05600
C1291       C  0.89894917  0.58826937  0.65449022    -0.20700
C1292       C  0.91707394  0.59750391  0.64881991     0.25000
C1293       C  0.93604218  0.58917000  0.65354808    -0.18300
C1294       C  0.93674698  0.57179502  0.66233239    -0.08200
C1295       C  0.91536162  0.61571312  0.63816829    -0.18500
C1296       C  0.93081441  0.62448277  0.62545338    -0.23300
C1297       C  0.92881320  0.64265454  0.61501776     0.27100
C1298       C  0.94639571  0.65313507  0.61414032    -0.20100
C1299       C  0.94515299  0.67043753  0.60522330    -0.09700
C1300       C  0.92628514  0.67761746  0.59657657    -0.10300
C1301       C  0.90879818  0.66691673  0.59637022    -0.03200
C1302       C  0.91002921  0.64961886  0.60549145    -0.18300
H1303       H  0.88532825  0.56410361  0.66673223     0.10800
H1304       H  0.88412665  0.59437582  0.65140221     0.10800
H1305       H  0.95043327  0.59588688  0.65056930     0.10500
H1306       H  0.95157278  0.56566374  0.66514032     0.11600
H1307       H  0.90055695  0.62202686  0.64062653     0.11700
H1308       H  0.94577321  0.61848325  0.62312439     0.13600
H1309       H  0.96109256  0.64802424  0.62102034     0.10100
H1310       H  0.95894951  0.67826466  0.60556872     0.12200
H1311       H  0.89405032  0.67198926  0.58967040     0.08800
H1312       H  0.89628807  0.64175534  0.60487154     0.11600
C1313       C  0.86238299  0.43691298  0.08211309    -0.03000
C1314       C  0.87731698  0.43153357  0.10207341    -0.05600
C1315       C  0.88553604  0.41477675  0.10083898    -0.20700
C1316       C  0.87855300  0.40286090  0.08024737     0.25000
C1317       C  0.86339279  0.40803526  0.06049886    -0.18300
C1318       C  0.85556892  0.42501405  0.06116915    -0.08200
C1319       C  0.88760993  0.38521530  0.07945312    -0.18500
C1320       C  0.87584597  0.37090865  0.07922298    -0.23300
C1321       C  0.88461782  0.35319805  0.08157517     0.27100
C1322       C  0.87533814  0.34123443  0.10018802    -0.20100
C1323       C  0.88286275  0.32428198  0.10232869    -0.09700
C1324       C  0.89942347  0.31875069  0.08514786    -0.10300
C1325       C  0.90869998  0.33072469  0.06636108    -0.03200
C1326       C  0.90153141  0.34789599  0.06487950    -0.18300
H1327       H  0.88308017  0.44044940  0.11822454     0.10800
H1328       H  0.89724954  0.41104154  0.11618265     0.10800
H1329       H  0.85796715  0.39906621  0.04419647     0.10500
H1330       H  0.84421007  0.42883010  0.04537023     0.11600
H1331       H  0.90411546  0.38393790  0.08202605     0.11700
H1332       H  0.85925283  0.37229558  0.07997978     0.13600
H1333       H  0.86227440  0.34505320  0.11319835     0.10100
H1334       H  0.87529902  0.31532526  0.11685056     0.12200
H1335       H  0.92146241  0.32680771  0.05286909     0.08800
H1336       H  0.90880112  0.35688434  0.05012661     0.11600
C1337       C  0.79803991  0.49998153  0.17144289    -0.03000
C1338       C  0.77817086  0.50702382  0.16970856    -0.05600
C1339       C  0.76506460  0.50667866  0.19346856    -0.20700
C1340       C  0.77150234  0.49948857  0.21969002     0.25000
C1341       C  0.79131068  0.49219503  0.22143936    -0.18300
C1342       C  0.80443519  0.49244275  0.19750817    -0.08200
C1343       C  0.75682987  0.49971857  0.24423266    -0.18500
C1344       C  0.76235404  0.49821445  0.27207245    -0.23300
C1345       C  0.74739847  0.49915554  0.29623522     0.27100
C1346       C  0.75237163  0.49109508  0.32238593    -0.20100
C1347       C  0.73873507  0.49160583  0.34561431    -0.09700
C1348       C  0.71985575  0.50038761  0.34333240    -0.10300
C1349       C  0.71506998  0.50883596  0.31738221    -0.03200
C1350       C  0.72869550  0.50826452  0.29408780    -0.18300
H1351       H  0.77267090  0.51282761  0.14990929     0.10800
H1352       H  0.74986556  0.51225301  0.19142445     0.10800
H1353       H  0.79669738  0.48607554  0.24097984     0.10500
H1354       H  0.81961575  0.48683960  0.19947448     0.11600
H1355       H  0.74078209  0.50164920  0.23892937     0.11700
H1356       H  0.77830295  0.49604482  0.27764352     0.13600
H1357       H  0.76675936  0.48418166  0.32473827     0.10100
H1358       H  0.74298951  0.48503811  0.36535813     0.12200
H1359       H  0.70073675  0.51581055  0.31498747     0.08800
H1360       H  0.72460595  0.51520981  0.27468019     0.11600
C1361       C  0.66430090  0.49207702  0.89051519    -0.03000
C1362       C  0.68157952  0.48288170  0.88060550    -0.05600
C1363       C  0.69955665  0.48221512  0.89719972    -0.20700
C1364       C  0.70063335  0.49059498  0.92411114     0.25000
C1365       C  0.68334653  0.49990301  0.93382921    -0.18300
C1366       C  0.66545444  0.50053165  0.91735594    -0.08200
C1367       C  0.72021536  0.49002295  0.94079001    -0.18500
C1368       C  0.72139439  0.49367790  0.96920679    -0.23300
C1369       C  0.74087658  0.49454589  0.98582826     0.27100
C1370       C  0.74131324  0.50483160  0.01082013    -0.20100
C1371       C  0.75914320  0.50615641  0.02735081    -0.09700
C1372       C  0.77692878  0.49694434  0.01959488    -0.10300
C1373       C  0.77646339  0.48638662  0.99481841    -0.03200
C1374       C  0.75864076  0.48523818  0.97800838    -0.18300
H1375       H  0.68127025  0.47630286  0.85996742     0.10800
H1376       H  0.71268256  0.47512050  0.88897707     0.10800
H1377       H  0.68355451  0.50715270  0.95377698     0.10500
H1378       H  0.65254979  0.50788907  0.92561725     0.11600
H1379       H  0.73408064  0.48671751  0.92902371     0.11700
H1380       H  0.70755244  0.49683384  0.98107072     0.13600
H1381       H  0.72782198  0.51204341  0.01744973     0.10100
H1382       H  0.75893726  0.51432499  0.04637589     0.12200
H1383       H  0.78992768  0.47911645  0.98829610     0.08800
H1384       H  0.75876382  0.47684156  0.95929927     0.11600
C1385       C  0.88261952  0.49774718  0.77707347    -0.03000
C1386       C  0.87955561  0.48261465  0.79333223    -0.05600
C1387       C  0.87439957  0.48375390  0.82243448    -0.20700
C1388       C  0.87298347  0.49999590  0.83590132     0.25000
C1389       C  0.87536011  0.51518445  0.81958534    -0.18300
C1390       C  0.87986203  0.51405845  0.79015287    -0.08200
C1391       C  0.86938924  0.50060273  0.86714580    -0.18500
C1392       C  0.88259019  0.50845874  0.88528273    -0.23300
C1393       C  0.88094316  0.50675621  0.91709348     0.27100
C1394       C  0.88968624  0.51940739  0.93520552    -0.20100
C1395       C  0.88688682  0.51859738  0.96519853    -0.09700
C1396       C  0.87547246  0.50498525  0.97741298    -0.10300
C1397       C  0.86815305  0.49170137  0.95929941    -0.03200
C1398       C  0.87092818  0.49251161  0.92966704    -0.18300
H1399       H  0.88160063  0.46991420  0.78365004     0.10800
H1400       H  0.87242859  0.47193553  0.83478364     0.10800
H1401       H  0.87400323  0.52782692  0.82968877     0.10500
H1402       H  0.88228578  0.52588485  0.77800393     0.11600
H1403       H  0.85669417  0.49293783  0.87524154     0.11700
H1404       H  0.89510381  0.51613848  0.87649574     0.13600
H1405       H  0.89803175  0.53024278  0.92606583     0.10100
H1406       H  0.89295596  0.52889779  0.97861897     0.12200
H1407       H  0.85972081  0.48075448  0.96790645     0.08800
H1408       H  0.86508053  0.48188940  0.91681697     0.11600
C1409       C  0.90125161  0.93603959  0.18032816    -0.03000
C1410       C  0.91339405  0.92388334  0.19505262    -0.05600
C1411       C  0.90822211  0.90623231  0.19465344    -0.20700
C1412       C  0.89040274  0.90055484  0.18053060     0.25000
C1413       C  0.87810349  0.91275457  0.16609496    -0.18300
C1414       C  0.88364731  0.93031365  0.16567236    -0.08200
C1415       C  0.88548058  0.88176415  0.17983554    -0.18500
C1416       C  0.86626608  0.87568817  0.18323078    -0.23300
C1417       C  0.86155607  0.85684556  0.18226369     0.27100
C1418       C  0.84752870  0.84969355  0.20191837    -0.20100
C1419       C  0.84312614  0.83186634  0.20141891    -0.09700
C1420       C  0.85216452  0.82100475  0.18058028    -0.10300
C1421       C  0.86574009  0.82832921  0.16038940    -0.03200
C1422       C  0.87054254  0.84601584  0.16139370    -0.18300
H1423       H  0.92710240  0.92799883  0.20633657     0.10800
H1424       H  0.91801634  0.89700479  0.20565635     0.10800
H1425       H  0.86449001  0.90864882  0.15458602     0.10500
H1426       H  0.87404251  0.93947539  0.15419494     0.11600
H1427       H  0.89814899  0.87264441  0.17789007     0.11700
H1428       H  0.85388875  0.88466760  0.18825320     0.13600
H1429       H  0.84029544  0.85785804  0.21802742     0.10100
H1430       H  0.83256295  0.82659854  0.21717174     0.12200
H1431       H  0.87299257  0.82029885  0.14411672     0.08800
H1432       H  0.88109875  0.85127502  0.14562056     0.11600
C1433       C  0.91094102  0.75444281  0.11619904    -0.03000
C1434       C  0.91104581  0.76484903  0.09128907    -0.05600
C1435       C  0.92830513  0.76553682  0.07343566    -0.20700
C1436       C  0.94586490  0.75568348  0.07964240     0.25000
C1437       C  0.94596438  0.74537472  0.10471813    -0.18300
C1438       C  0.92868118  0.74479446  0.12281388    -0.08200
C1439       C  0.96377906  0.75700684  0.05974495    -0.18500
C1440       C  0.97786080  0.74432074  0.05601833    -0.23300
C1441       C  0.99534538  0.74522292  0.03509360     0.27100
C1442       C  0.01085169  0.73255916  0.03672832    -0.20100
C1443       C  0.02757350  0.73278521  0.01773070    -0.09700
C1444       C  0.02921723  0.74568342  0.99640534    -0.10300
C1445       C  0.01355313  0.75819164  0.99437731    -0.03200
C1446       C  0.99682253  0.75796807  0.01336289    -0.18300
H1447       H  0.89775800  0.77254717  0.08552516     0.10800
H1448       H  0.92784004  0.77369856  0.05443186     0.10800
H1449       H  0.95942094  0.73798234  0.11069832     0.10500
H1450       H  0.92919974  0.73675553  0.14193621     0.11600
H1451       H  0.96470288  0.76876481  0.04702138     0.11700
H1452       H  0.97651108  0.73253270  0.06870039     0.13600
H1453       H  0.01011641  0.72246869  0.05295875     0.10100
H1454       H  0.03927227  0.72287506  0.01987239     0.12200
H1455       H  0.01421526  0.76824049  0.97808741     0.08800
H1456       H  0.98512029  0.76774154  0.01049060     0.11600
C1457       C  0.88923255  0.73974514  0.47993804    -0.03000
C1458       C  0.88542545  0.72360721  0.46682550    -0.05600
C1459       C  0.88300137  0.72248298  0.43684020    -0.20700
C1460       C  0.88439180  0.73743602  0.41960502     0.25000
C1461       C  0.88673566  0.75367846  0.43312589    -0.18300
C1462       C  0.88932484  0.75477566  0.46285531    -0.08200
C1463       C  0.88316390  0.73589660  0.38770379    -0.18500
C1464       C  0.89193059  0.74760666  0.36998438    -0.23300
C1465       C  0.88884532  0.74780711  0.33840293     0.27100
C1466       C  0.88785606  0.76396307  0.32456323    -0.20100
C1467       C  0.88327744  0.76498163  0.29527284    -0.09700
C1468       C  0.88025687  0.74981578  0.27905383    -0.10300
C1469       C  0.88250318  0.73356440  0.29240840    -0.03200
C1470       C  0.88657812  0.73254558  0.32200735    -0.18300
H1471       H  0.88533431  0.71181284  0.47951802     0.10800
H1472       H  0.88077859  0.70985779  0.42699057     0.10800
H1473       H  0.88672730  0.76561903  0.42087935     0.10500
H1474       H  0.89187116  0.76742885  0.47246052     0.11600
H1475       H  0.87472913  0.72499894  0.37872891     0.11700
H1476       H  0.90057238  0.75836157  0.37899147     0.13600
H1477       H  0.88974090  0.77587888  0.33673821     0.10100
H1478       H  0.88157063  0.77764559  0.28540218     0.12200
H1479       H  0.88004734  0.72170771  0.28029612     0.08800
H1480       H  0.88774923  0.71989726  0.33202494     0.11600
C1481       C  0.84066972  0.57083856  0.09099901    -0.03000
C1482       C  0.82151541  0.57890557  0.09528532    -0.05600
C1483       C  0.82029896  0.59618536  0.10447749    -0.20700
C1484       C  0.83814853  0.60580634  0.10999649     0.25000
C1485       C  0.85734335  0.59799731  0.10460429    -0.18300
C1486       C  0.85856786  0.58071001  0.09519549    -0.08200
C1487       C  0.83600746  0.62395968  0.12084477    -0.18500
C1488       C  0.85064036  0.63224945  0.13615090    -0.23300
C1489       C  0.84872117  0.65049310  0.14670143     0.27100
C1490       C  0.86670188  0.65976790  0.15309219    -0.20100
C1491       C  0.86579217  0.67712588  0.16200753    -0.09700
C1492       C  0.84680693  0.68563250  0.16495973    -0.10300
C1493       C  0.82873646  0.67615718  0.15965179    -0.03200
C1494       C  0.82965205  0.65878385  0.15073027    -0.18300
H1495       H  0.80739168  0.57175668  0.09207682     0.10800
H1496       H  0.80531565  0.60192718  0.10799746     0.10800
H1497       H  0.87146336  0.60515208  0.10751739     0.10500
H1498       H  0.87355761  0.57494620  0.09194375     0.11600
H1499       H  0.82160867  0.63049424  0.11636986     0.11700
H1500       H  0.86497949  0.62562402  0.14067327     0.13600
H1501       H  0.88158520  0.65366996  0.15054177     0.10100
H1502       H  0.88001529  0.68398167  0.16598250     0.12200
H1503       H  0.81383046  0.68222566  0.16206780     0.08800
H1504       H  0.81538245  0.65196387  0.14716568     0.11600
C1505       C  0.65481811  0.68200596  0.83653325    -0.03000
C1506       C  0.63867136  0.67662202  0.85450827    -0.05600
C1507       C  0.63096998  0.65972057  0.85265477    -0.20700
C1508       C  0.63966977  0.64769168  0.83350460     0.25000
C1509       C  0.65621186  0.65286567  0.81603767    -0.18300
C1510       C  0.66356010  0.66995533  0.81729898    -0.08200
C1511       C  0.63066046  0.63006374  0.83144858    -0.18500
C1512       C  0.64224900  0.61568838  0.82921208    -0.23300
C1513       C  0.63313195  0.59808376  0.83012269     0.27100
C1514       C  0.64201403  0.58544539  0.84788153    -0.20100
C1515       C  0.63364668  0.56875918  0.84937258    -0.09700
C1516       C  0.61667120  0.56420941  0.83231040    -0.10300
C1517       C  0.60797909  0.57677908  0.81407390    -0.03200
C1518       C  0.61595861  0.59367967  0.81330967    -0.18300
H1519       H  0.63149157  0.68567319  0.86931108     0.10800
H1520       H  0.61818126  0.65600869  0.86623832     0.10800
H1521       H  0.66301394  0.64387024  0.80080548     0.10500
H1522       H  0.67596426  0.67378773  0.80312611     0.11600
H1523       H  0.61418051  0.62875485  0.83433747     0.11700
H1524       H  0.65886744  0.61680573  0.82957375     0.13600
H1525       H  0.65530116  0.58857137  0.86089968     0.10100
H1526       H  0.64080505  0.55924638  0.86331717     0.12200
H1527       H  0.59497066  0.57355189  0.80058696     0.08800
H1528       H  0.60901467  0.60319947  0.79917290     0.11600
C1529       C  0.71696924  0.74780340  0.92290221    -0.03000
C1530       C  0.73718736  0.75391012  0.92018981    -0.05600
C1531       C  0.74991783  0.75503459  0.94423097    -0.20700
C1532       C  0.74268275  0.75031460  0.97156628     0.25000
C1533       C  0.72257064  0.74381421  0.97426048    -0.18300
C1534       C  0.70984551  0.74257852  0.95010959    -0.08200
C1535       C  0.75682443  0.75210808  0.99637579    -0.18500
C1536       C  0.75058655  0.75307825  0.02395389    -0.23300
C1537       C  0.76525144  0.75456464  0.04812853     0.27100
C1538       C  0.76029217  0.74675764  0.07444975    -0.20100
C1539       C  0.77418292  0.74711367  0.09727730    -0.09700
C1540       C  0.79321712  0.75554703  0.09436252    -0.10300
C1541       C  0.79782738  0.76401343  0.06836852    -0.03200
C1542       C  0.78396957  0.76352434  0.04542380    -0.18300
H1543       H  0.74317814  0.75792661  0.89946112     0.10800
H1544       H  0.76540090  0.75988265  0.94152220     0.10800
H1545       H  0.71660022  0.73949360  0.99477338     0.10500
H1546       H  0.69434105  0.73779596  0.95282060     0.11600
H1547       H  0.77310288  0.75288483  0.99154311     0.11700
H1548       H  0.73443889  0.75209494  0.02932712     0.13600
H1549       H  0.74585769  0.73997216  0.07710139     0.10100
H1550       H  0.77005838  0.74061775  0.11714642     0.12200
H1551       H  0.81226382  0.77076082  0.06558188     0.08800
H1552       H  0.78791835  0.77021146  0.02568151     0.11600
C1553       C  0.73764800  0.74455437  0.77030309    -0.03000
C1554       C  0.75078588  0.75895768  0.76805981    -0.05600
C1555       C  0.76786216  0.75851183  0.74979385    -0.20700
C1556       C  0.77229605  0.74371935  0.73313062     0.25000
C1557       C  0.75919840  0.72923673  0.73535772    -0.18300
C1558       C  0.74204765  0.72968940  0.75367214    -0.08200
C1559       C  0.79118555  0.74389487  0.71488805    -0.18500
C1560       C  0.79541076  0.73253653  0.69343309    -0.23300
C1561       C  0.81469434  0.73342930  0.67604450     0.27100
C1562       C  0.81502657  0.72680823  0.64776485    -0.20100
C1563       C  0.83279644  0.72805834  0.63070304    -0.09700
C1564       C  0.85064308  0.73590393  0.64167313    -0.10300
C1565       C  0.85047924  0.74188461  0.67035448    -0.03200
C1566       C  0.83284427  0.74057882  0.68733465    -0.18300
H1567       H  0.74786003  0.77066356  0.78037929     0.10800
H1568       H  0.77767826  0.76983947  0.74868135     0.10800
H1569       H  0.76224143  0.71742918  0.72345262     0.10500
H1570       H  0.73226675  0.71835283  0.75486614     0.11600
H1571       H  0.80185008  0.75444320  0.71885945     0.11700
H1572       H  0.78414756  0.72284313  0.68737723     0.13600
H1573       H  0.80137747  0.72096846  0.63865610     0.10100
H1574       H  0.83244502  0.72317024  0.60881225     0.12200
H1575       H  0.86405379  0.74764411  0.67981267     0.08800
H1576       H  0.83360955  0.74509296  0.70939732     0.11600
C1577       C  0.64850668  0.06403443  0.93402786    -0.03000
C1578       C  0.63199159  0.06926777  0.91659823    -0.05600
C1579       C  0.62370392  0.08594232  0.91921407    -0.20700
C1580       C  0.63216567  0.09791407  0.93860321     0.25000
C1581       C  0.64884342  0.09282853  0.95587050    -0.18300
C1582       C  0.65677272  0.07593172  0.95387071    -0.08200
C1583       C  0.62321755  0.11557888  0.94041240    -0.18500
C1584       C  0.63502122  0.12985449  0.94117331    -0.23300
C1585       C  0.62624612  0.14750837  0.93838936     0.27100
C1586       C  0.63537342  0.15918329  0.91914700    -0.20100
C1587       C  0.62741657  0.17590065  0.91577050    -0.09700
C1588       C  0.61059430  0.18148423  0.93234275    -0.10300
C1589       C  0.60161421  0.16988770  0.95202361    -0.03200
C1590       C  0.60919452  0.15290924  0.95471121    -0.18300
H1591       H  0.62512600  0.06029820  0.90140515     0.10800
H1592       H  0.61081948  0.08959194  0.90577926     0.10800
H1593       H  0.65546243  0.10180586  0.97125890     0.10500
H1594       H  0.66940058  0.07218868  0.96769268     0.11600
H1595       H  0.60672712  0.11697132  0.93778386     0.11700
H1596       H  0.65161168  0.12848663  0.94040487     0.13600
H1597       H  0.64855418  0.15527387  0.90645077     0.10100
H1598       H  0.63481015  0.18465515  0.90073944     0.12200
H1599       H  0.58872682  0.17393419  0.96517540     0.08800
H1600       H  0.60205820  0.14413082  0.96993617     0.11600
C1601       C  0.71359165  0.00397423  0.83901600    -0.03000
C1602       C  0.70661227  0.01278198  0.81438914    -0.05600
C1603       C  0.71819867  0.01262986  0.78903315    -0.20700
C1604       C  0.73683260  0.00353314  0.78766481     0.25000
C1605       C  0.74421514  0.99524808  0.81256263    -0.18300
C1606       C  0.73268962  0.99545377  0.83795052    -0.08200
C1607       C  0.74828302  0.00318194  0.76007979    -0.18500
C1608       C  0.76020875  0.98972056  0.75197508    -0.23300
C1609       C  0.77173174  0.98916960  0.72433927     0.27100
C1610       C  0.78853351  0.97784213  0.72187145    -0.20100
C1611       C  0.80051395  0.97761603  0.69686840    -0.09700
C1612       C  0.79582912  0.98866763  0.67368386    -0.10300
C1613       C  0.77839601  0.99936249  0.67559215    -0.03200
C1614       C  0.76642509  0.99957529  0.70055558    -0.18300
H1615       H  0.69200065  0.01948952  0.81449294     0.10800
H1616       H  0.71234082  0.01928280  0.77018688     0.10800
H1617       H  0.75889992  0.98867585  0.81256698     0.10500
H1618       H  0.73864725  0.98872740  0.85665189     0.11600
H1619       H  0.74623069  0.01422553  0.74590135     0.11700
H1620       H  0.76198988  0.97871647  0.76638449     0.13600
H1621       H  0.79275425  0.96947083  0.73966879     0.10100
H1622       H  0.81373689  0.96910081  0.69601822     0.12200
H1623       H  0.77418154  0.00786228  0.65797667     0.08800
H1624       H  0.75309198  0.00792348  0.70094880     0.11600
C1625       C  0.73481182  0.00292419  0.99378825    -0.03000
C1626       C  0.75092588  0.99105820  0.98938660    -0.05600
C1627       C  0.76855307  0.99163302  0.00644258    -0.20700
C1628       C  0.77057449  0.00394655  0.02859212     0.25000
C1629       C  0.75448776  0.01588683  0.03313299    -0.18300
C1630       C  0.73679080  0.01536262  0.01589034    -0.08200
C1631       C  0.79002021  0.00401052  0.04551530    -0.18500
C1632       C  0.79221545  0.01093410  0.07211596    -0.23300
C1633       C  0.81165961  0.00986896  0.08920588     0.27100
C1634       C  0.81426142  0.02082423  0.11323615    -0.20100
C1635       C  0.83213581  0.01999940  0.13008135    -0.09700
C1636       C  0.84785375  0.00816034  0.12325934    -0.10300
C1637       C  0.84514289  0.99709800  0.09941187    -0.03200
C1638       C  0.82730763  0.99782822  0.08277629    -0.18300
H1639       H  0.74998033  0.98126887  0.97265374     0.10800
H1640       H  0.78067668  0.98230682  0.00236251     0.10800
H1641       H  0.75560842  0.02583770  0.04952326     0.10500
H1642       H  0.72469383  0.02472369  0.01982594     0.11600
H1643       H  0.80295098  0.99757057  0.03543708     0.11700
H1644       H  0.77931331  0.01753375  0.08206524     0.13600
H1645       H  0.80243617  0.03010563  0.11895920     0.10100
H1646       H  0.83368433  0.02868746  0.14832500     0.12200
H1647       H  0.85676714  0.98763767  0.09368886     0.08800
H1648       H  0.82587094  0.98861356  0.06532691     0.11600
C1649       C  0.67372513  0.93086089  0.91610934    -0.03000
C1650       C  0.69295664  0.92299288  0.91164124    -0.05600
C1651       C  0.69433418  0.90550614  0.90370531    -0.20700
C1652       C  0.67656105  0.89554584  0.89955758     0.25000
C1653       C  0.65730778  0.90325874  0.90465989    -0.18300
C1654       C  0.65592368  0.92072667  0.91286688    -0.08200
C1655       C  0.67878141  0.87712507  0.89043334    -0.18500
C1656       C  0.66457578  0.86868647  0.87458093    -0.23300
C1657       C  0.66662629  0.85035543  0.86448065     0.27100
C1658       C  0.64925773  0.84205312  0.85298694    -0.20100
C1659       C  0.65021282  0.82475388  0.84376737    -0.09700
C1660       C  0.66865268  0.81534697  0.84566932    -0.10300
C1661       C  0.68618936  0.82378144  0.85639406    -0.03200
C1662       C  0.68523926  0.84105337  0.86562302    -0.18300
H1663       H  0.70698595  0.93038159  0.91405896     0.10800
H1664       H  0.70935172  0.89982227  0.90022340     0.10800
H1665       H  0.64329833  0.89583065  0.90261187     0.10500
H1666       H  0.64087694  0.92635458  0.91625782     0.11600
H1667       H  0.69297777  0.87073219  0.89629761     0.11700
H1668       H  0.65065206  0.87551162  0.86852655     0.13600
H1669       H  0.63476559  0.84890117  0.85153579     0.10100
H1670       H  0.63640932  0.81867842  0.83558565     0.12200
H1671       H  0.70067624  0.81695402  0.85809104     0.08800
H1672       H  0.69921599  0.84690549  0.87344506     0.11600
C1673       C  0.60743714  0.68086889  0.42884245    -0.03000
C1674       C  0.59577249  0.66914392  0.44522820    -0.05600
C1675       C  0.60088807  0.65147176  0.44570837    -0.20700
C1676       C  0.61816582  0.64535715  0.43071423     0.25000
C1677       C  0.63001319  0.65712970  0.41467211    -0.18300
C1678       C  0.62455269  0.67468430  0.41348764    -0.08200
C1679       C  0.62300302  0.62654403  0.43078251    -0.18500
C1680       C  0.64235052  0.62052841  0.43259817    -0.23300
C1681       C  0.64719304  0.60172122  0.43180292     0.27100
C1682       C  0.66236050  0.59498755  0.45011064    -0.20100
C1683       C  0.66726990  0.57727384  0.44942506    -0.09700
C1684       C  0.65762655  0.56613618  0.42962392    -0.10300
C1685       C  0.64278197  0.57298183  0.41084018    -0.03200
C1686       C  0.63743689  0.59056822  0.41213792    -0.18300
H1687       H  0.58246197  0.67358881  0.45714775     0.10800
H1688       H  0.59145955  0.64257377  0.45800325     0.10800
H1689       H  0.64319471  0.65268323  0.40248216     0.10500
H1690       H  0.63383423  0.68347725  0.40076894     0.11600
H1691       H  0.61029186  0.61741729  0.43046726     0.11700
H1692       H  0.65489726  0.62959217  0.43597962     0.13600
H1693       H  0.67017782  0.60340566  0.46525786     0.10100
H1694       H  0.67877284  0.57231224  0.46411129     0.12200
H1695       H  0.63502539  0.56464887  0.39550391     0.08800
H1696       H  0.62594764  0.59551642  0.39742229     0.11600
C1697       C  0.66313447  0.75288077  0.37287990    -0.03000
C1698       C  0.67975302  0.76259762  0.38349483    -0.05600
C1699       C  0.69798431  0.76397481  0.36754834    -0.20700
C1700       C  0.70010031  0.75561245  0.34073884     0.25000
C1701       C  0.68336641  0.74601541  0.33005006    -0.18300
C1702       C  0.66522674  0.74460958  0.34596360    -0.08200
C1703       C  0.71953121  0.75784305  0.32400896    -0.18500
C1704       C  0.72553929  0.74686194  0.30286841    -0.23300
C1705       C  0.74426705  0.74894077  0.28454821     0.27100
C1706       C  0.74731550  0.73696700  0.26207647    -0.20100
C1707       C  0.76434744  0.73817409  0.24389981    -0.09700
C1708       C  0.77894667  0.75141834  0.24763729    -0.10300
C1709       C  0.77602119  0.76344759  0.27011998    -0.03200
C1710       C  0.75889734  0.76224376  0.28840002    -0.18300
H1711       H  0.67865487  0.76920839  0.40405509     0.10800
H1712       H  0.71050123  0.77160670  0.37620628     0.10800
H1713       H  0.68388169  0.73988799  0.30908838     0.10500
H1714       H  0.65269953  0.73716777  0.33689219     0.11600
H1715       H  0.72905333  0.76882748  0.32972369     0.11700
H1716       H  0.71622309  0.73551393  0.29844481     0.13600
H1717       H  0.73639857  0.72659097  0.25844355     0.10100
H1718       H  0.76604511  0.72865211  0.22685422     0.12200
H1719       H  0.78701554  0.77376278  0.27368977     0.08800
H1720       H  0.75740128  0.77174539  0.30540603     0.11600
C1721       C  0.61624413  0.75424353  0.53224704    -0.03000
C1722       C  0.60271480  0.74629018  0.55185577    -0.05600
C1723       C  0.60457854  0.74911493  0.58132925    -0.20700
C1724       C  0.62027480  0.75961559  0.59210917     0.25000
C1725       C  0.63401912  0.76757385  0.57275866    -0.18300
C1726       C  0.63189104  0.76502313  0.54294790    -0.08200
C1727       C  0.62186810  0.76156527  0.62371991    -0.18500
C1728       C  0.63998998  0.76171019  0.63734158    -0.23300
C1729       C  0.64158954  0.75920525  0.66887215     0.27100
C1730       C  0.65817574  0.74959787  0.67941199    -0.20100
C1731       C  0.65997647  0.74626421  0.70876864    -0.09700
C1732       C  0.64544651  0.75281612  0.72843731    -0.10300
C1733       C  0.62888514  0.76264347  0.71799580    -0.03200
C1734       C  0.62687823  0.76572222  0.68836972    -0.18300
H1735       H  0.59028674  0.73809745  0.54442640     0.10800
H1736       H  0.59385530  0.74285174  0.59583188     0.10800
H1737       H  0.64613487  0.77594962  0.58060644     0.10500
H1738       H  0.64237858  0.77146486  0.52835237     0.11600
H1739       H  0.60785983  0.76021017  0.63622773     0.11700
H1740       H  0.65404266  0.76116452  0.62474321     0.13600
H1741       H  0.66966673  0.74445354  0.66481563     0.10100
H1742       H  0.67312940  0.73888306  0.71611136     0.12200
H1743       H  0.61761921  0.76801627  0.73268961     0.08800
H1744       H  0.61406448  0.77343055  0.68083239     0.11600
C1745       C  0.65508567  0.17990705  0.33189760    -0.03000
C1746       C  0.66758899  0.16860922  0.31583087    -0.05600
C1747       C  0.66363029  0.15071808  0.31567335    -0.20700
C1748       C  0.64668420  0.14399164  0.33064368     0.25000
C1749       C  0.63408436  0.15532770  0.34646887    -0.18300
C1750       C  0.63839495  0.17308354  0.34735479    -0.08200
C1751       C  0.64270626  0.12506539  0.33054537    -0.18500
C1752       C  0.62366635  0.11860343  0.32745865    -0.23300
C1753       C  0.61936059  0.09973961  0.32832527     0.27100
C1754       C  0.60513632  0.09256807  0.30902989    -0.20100
C1755       C  0.60052079  0.07482486  0.30995389    -0.09700
C1756       C  0.60953808  0.06406866  0.33087961    -0.10300
C1757       C  0.62349224  0.07136254  0.35055831    -0.03200
C1758       C  0.62852131  0.08899871  0.34910922    -0.18300
H1759       H  0.68063136  0.17357056  0.30393521     0.10800
H1760       H  0.67362697  0.14214140  0.30356800     0.10800
H1761       H  0.62114864  0.15039778  0.35862931     0.10500
H1762       H  0.62852909  0.18154029  0.35990619     0.11600
H1763       H  0.65573156  0.11628252  0.33193466     0.11700
H1764       H  0.61096835  0.12736606  0.32303964     0.13600
H1765       H  0.59778361  0.10068052  0.29300858     0.10100
H1766       H  0.58969498  0.06955900  0.29455527     0.12200
H1767       H  0.63074221  0.06337233  0.36683043     0.08800
H1768       H  0.63924875  0.09431756  0.36459252     0.11600
C1769       C  0.66341048  0.99343019  0.39783652    -0.03000
C1770       C  0.66138393  0.00003716  0.42595885    -0.05600
C1771       C  0.67777778  0.99953511  0.44521428    -0.20700
C1772       C  0.69673601  0.99240582  0.43711889     0.25000
C1773       C  0.69886982  0.98560368  0.40901565    -0.18300
C1774       C  0.68230798  0.98605714  0.38962011    -0.08200
C1775       C  0.71376995  0.99319256  0.45853239    -0.18500
C1776       C  0.73160028  0.98436476  0.45667844    -0.23300
C1777       C  0.74811955  0.98582355  0.47883631     0.27100
C1778       C  0.76238871  0.97226377  0.48171944    -0.20100
C1779       C  0.77835841  0.97335733  0.50183242    -0.09700
C1780       C  0.78051458  0.98812313  0.51949925    -0.10300
C1781       C  0.76622439  0.00169343  0.51664641    -0.03200
C1782       C  0.75032605  0.00063273  0.49646651    -0.18300
H1783       H  0.64706058  0.00569400  0.43321552     0.10800
H1784       H  0.67562024  0.00488143  0.46662526     0.10800
H1785       H  0.71329532  0.98025990  0.40165245     0.10500
H1786       H  0.68438729  0.98087458  0.36810006     0.11600
H1787       H  0.71100587  0.00114850  0.47746817     0.11700
H1788       H  0.73398268  0.97523942  0.43915380     0.13600
H1789       H  0.76119191  0.96076935  0.46832308     0.10100
H1790       H  0.78914654  0.96269013  0.50331862     0.12200
H1791       H  0.76759863  0.01336973  0.52954604     0.08800
H1792       H  0.74018878  0.01167782  0.49431176     0.11600
C1793       C  0.63511806  0.99155678  0.03188329    -0.03000
C1794       C  0.62939094  0.97532079  0.04311932    -0.05600
C1795       C  0.62700770  0.97315737  0.07293986    -0.20700
C1796       C  0.63043381  0.98714222  0.09179041     0.25000
C1797       C  0.63424245  0.00368617  0.08019823    -0.18300
C1798       C  0.63669956  0.00582522  0.05062782    -0.08200
C1799       C  0.63039262  0.98427539  0.12339799    -0.18500
C1800       C  0.64221057  0.99382831  0.14117818    -0.23300
C1801       C  0.64084556  0.99292145  0.17290070     0.27100
C1802       C  0.64288058  0.00840238  0.18855826    -0.20100
C1803       C  0.63933329  0.00863189  0.21816294    -0.09700
C1804       C  0.63437425  0.99326520  0.23273332    -0.10300
C1805       C  0.63394549  0.97748793  0.21755857    -0.03200
C1806       C  0.63696772  0.97732364  0.18767445    -0.18300
H1807       H  0.62796221  0.96412477  0.02911726     0.10800
H1808       H  0.62353576  0.96037887  0.08138204     0.10800
H1809       H  0.63578774  0.01497397  0.09394435     0.10500
H1810       H  0.64061492  0.01859240  0.04251604     0.11600
H1811       H  0.62057849  0.97415057  0.13206519     0.11700
H1812       H  0.65217001  0.00378551  0.13232560     0.13600
H1813       H  0.64607815  0.02052478  0.17760233     0.10100
H1814       H  0.63963571  0.02093036  0.22954173     0.12200
H1815       H  0.62994754  0.96552646  0.22846852     0.08800
H1816       H  0.63584401  0.96513424  0.17612686     0.11600
C1817       C  0.59777454  0.92930492  0.34316848    -0.03000
C1818       C  0.61646753  0.92048299  0.34694819    -0.05600
C1819       C  0.61671643  0.90314911  0.35579627    -0.20700
C1820       C  0.59834426  0.89424133  0.36121918     0.25000
C1821       C  0.57958636  0.90283728  0.35631735    -0.18300
C1822       C  0.57933274  0.92020234  0.34751076    -0.08200
C1823       C  0.59954856  0.87603798  0.37172471    -0.18500
C1824       C  0.58425443  0.86798623  0.38596428    -0.23300
C1825       C  0.58584485  0.84981949  0.39640931     0.27100
C1826       C  0.56788396  0.83992200  0.39882589    -0.20100
C1827       C  0.56880500  0.82255468  0.40739683    -0.09700
C1828       C  0.58773363  0.81475693  0.41414387    -0.10300
C1829       C  0.60563032  0.82490364  0.41301050    -0.03200
C1830       C  0.60471242  0.84226277  0.40423688    -0.18300
H1831       H  0.63095917  0.92709099  0.34380362     0.10800
H1832       H  0.63136738  0.89678972  0.35908005     0.10800
H1833       H  0.56506242  0.89628365  0.35913597     0.10500
H1834       H  0.56466086  0.92656632  0.34450048     0.11600
H1835       H  0.61387167  0.86917538  0.36802557     0.11700
H1836       H  0.56979505  0.87462403  0.38958644     0.13600
H1837       H  0.55313758  0.84551663  0.39332585     0.10100
H1838       H  0.55468954  0.81515541  0.40824851     0.12200
H1839       H  0.62042212  0.81933539  0.41828305     0.08800
H1840       H  0.61878598  0.84969755  0.40371423     0.11600
C1841       C  0.46945230  0.99809099  0.58939258    -0.03000
C1842       C  0.48812626  0.00718484  0.59120069    -0.05600
C1843       C  0.50201327  0.00694770  0.56835491    -0.20700
C1844       C  0.49750686  0.99780308  0.54305236     0.25000
C1845       C  0.47902236  0.98838085  0.54133309    -0.18300
C1846       C  0.46510814  0.98856192  0.56430133    -0.08200
C1847       C  0.51261777  0.99830023  0.51920525    -0.18500
C1848       C  0.50735572  0.99622852  0.49142588    -0.23300
C1849       C  0.52229029  0.99709477  0.46740011     0.27100
C1850       C  0.51750586  0.98842091  0.44174261    -0.20100
C1851       C  0.53092491  0.98892554  0.41838249    -0.09700
C1852       C  0.54938276  0.99832188  0.42001914    -0.10300
C1853       C  0.55409170  0.00726584  0.44556985    -0.03200
C1854       C  0.54065832  0.00668242  0.46907676    -0.18300
H1855       H  0.49204839  0.01458272  0.61028481     0.10800
H1856       H  0.51620995  0.01416667  0.57029114     0.10800
H1857       H  0.47533632  0.98067583  0.52253136     0.10500
H1858       H  0.45095613  0.98129486  0.56237013     0.11600
H1859       H  0.52844893  0.00100485  0.52483814     0.11700
H1860       H  0.49151104  0.99355569  0.48582680     0.13600
H1861       H  0.50339509  0.98108102  0.43984696     0.10100
H1862       H  0.52677499  0.98192313  0.39898367     0.12200
H1863       H  0.56815685  0.01465957  0.44743638     0.08800
H1864       H  0.54456933  0.01400311  0.48820649     0.11600
C1865       C  0.60022720  0.99244710  0.87007321    -0.03000
C1866       C  0.58268168  0.98374861  0.88015410    -0.05600
C1867       C  0.56507337  0.98255288  0.86293949    -0.20700
C1868       C  0.56455821  0.99005443  0.83534278     0.25000
C1869       C  0.58229352  0.99846769  0.82509120    -0.18300
C1870       C  0.59979711  0.99974438  0.84230751    -0.08200
C1871       C  0.54553556  0.98843505  0.81765143    -0.18500
C1872       C  0.54111187  0.99911233  0.79543567    -0.23300
C1873       C  0.52237293  0.99804970  0.77703003     0.27100
C1874       C  0.51935337  0.01111927  0.75637322    -0.20100
C1875       C  0.50215834  0.01099240  0.73844870    -0.09700
C1876       C  0.48742291  0.99773911  0.74061090    -0.10300
C1877       C  0.49045912  0.98450128  0.76103368    -0.03200
C1878       C  0.50774756  0.98460836  0.77902225    -0.18300
H1879       H  0.58251513  0.97791505  0.90137946     0.10800
H1880       H  0.55174599  0.97583321  0.87129737     0.10800
H1881       H  0.58300033  0.00383605  0.80360133     0.10500
H1882       H  0.61311504  0.00633409  0.83364858     0.11600
H1883       H  0.53470892  0.97848658  0.82399576     0.11700
H1884       H  0.55152244  0.00970221  0.79067524     0.13600
H1885       H  0.53033448  0.02158908  0.75412904     0.10100
H1886       H  0.50037864  0.02140080  0.72296606     0.12200
H1887       H  0.47940893  0.97409210  0.76325135     0.08800
H1888       H  0.50944468  0.97410172  0.79422704     0.11600
C1889       C  0.23752308  0.00102967  0.48952310    -0.03000
C1890       C  0.25186851  0.98746824  0.48683068    -0.05600
C1891       C  0.26970467  0.98725520  0.50355728    -0.20700
C1892       C  0.27376387  0.00052940  0.52355753     0.25000
C1893       C  0.25958607  0.01431308  0.52595697    -0.18300
C1894       C  0.24166041  0.01450613  0.50919688    -0.08200
C1895       C  0.29308408  0.99939512  0.54084581    -0.18500
C1896       C  0.29735041  0.00919647  0.56428044    -0.23300
C1897       C  0.31656661  0.00748047  0.58170195     0.27100
C1898       C  0.31714925  0.01484593  0.60944350    -0.20100
C1899       C  0.33480874  0.01363308  0.62656074    -0.09700
C1900       C  0.35242770  0.00506340  0.61630407    -0.10300
C1901       C  0.35193840  0.99783471  0.58843896    -0.03200
C1902       C  0.33432869  0.99909066  0.57130692    -0.18300
H1903       H  0.24927778  0.97687978  0.47187962     0.10800
H1904       H  0.28033229  0.97653716  0.50097859     0.10800
H1905       H  0.26221462  0.02507067  0.54046147     0.10500
H1906       H  0.23102246  0.02521532  0.51169959     0.11600
H1907       H  0.30383624  0.98937260  0.53442391     0.11700
H1908       H  0.28604449  0.01841655  0.57200682     0.13600
H1909       H  0.30382973  0.02151910  0.61799841     0.10100
H1910       H  0.33464350  0.01943648  0.64783608     0.12200
H1911       H  0.36527189  0.99128763  0.57967062     0.08800
H1912       H  0.33498719  0.99369880  0.54981666     0.11600
C1913       C  0.54782137  0.24324123  0.83699839    -0.03000
C1914       C  0.55223955  0.23183591  0.81415170    -0.05600
C1915       C  0.53958016  0.23128735  0.78988577    -0.20700
C1916       C  0.52239722  0.24220785  0.78783561     0.25000
C1917       C  0.51758827  0.25321564  0.81110207    -0.18300
C1918       C  0.53021759  0.25376401  0.83534070    -0.08200
C1919       C  0.50982000  0.24163381  0.76125322    -0.18500
C1920       C  0.49823613  0.25505678  0.75223436    -0.23300
C1921       C  0.48595587  0.25459599  0.72539788     0.27100
C1922       C  0.46858093  0.26527823  0.72333541    -0.20100
C1923       C  0.45646542  0.26510743  0.69853029    -0.09700
C1924       C  0.46162784  0.25433970  0.67512200    -0.10300
C1925       C  0.47935044  0.24397585  0.67690970    -0.03200
C1926       C  0.49143793  0.24413400  0.70173136    -0.18300
H1927       H  0.56559810  0.22347197  0.81484796     0.10800
H1928       H  0.54344980  0.22253569  0.77239208     0.10800
H1929       H  0.50402694  0.26131623  0.81090292     0.10500
H1930       H  0.52620077  0.26252308  0.85274803     0.11600
H1931       H  0.51063389  0.22985855  0.74841273     0.11700
H1932       H  0.49736900  0.26684306  0.76502618     0.13600
H1933       H  0.46418751  0.27359530  0.74117031     0.10100
H1934       H  0.44295069  0.27328908  0.69783185     0.12200
H1935       H  0.48388786  0.23567798  0.65913794     0.08800
H1936       H  0.50516073  0.23622849  0.70206736     0.11600
C1937       C  0.48222526  0.25570369  0.52209699    -0.03000
C1938       C  0.48414220  0.26976978  0.50291317    -0.05600
C1939       C  0.50066109  0.27074013  0.48366559    -0.20700
C1940       C  0.51562238  0.25762786  0.48279956     0.25000
C1941       C  0.51419498  0.24388554  0.50278682    -0.18300
C1942       C  0.49766797  0.24293012  0.52212649    -0.08200
C1943       C  0.53252792  0.25891788  0.46108819    -0.18500
C1944       C  0.54327798  0.24507219  0.45153515    -0.23300
C1945       C  0.56071128  0.24603824  0.43071741     0.27100
C1946       C  0.57532795  0.23267302  0.43129138    -0.20100
C1947       C  0.59235688  0.23301653  0.41303923    -0.09700
C1948       C  0.59513789  0.24661509  0.39321397    -0.10300
C1949       C  0.58008508  0.25969528  0.39162929    -0.03200
C1950       C  0.56306219  0.25948165  0.41033218    -0.18300
H1951       H  0.47266131  0.27994159  0.50238024     0.10800
H1952       H  0.50149491  0.28161345  0.46891119     0.10800
H1953       H  0.52581161  0.23386915  0.50375380     0.10500
H1954       H  0.49684556  0.23203613  0.53682324     0.11600
H1955       H  0.53591080  0.27169514  0.45245342     0.11700
H1956       H  0.53972531  0.23230426  0.46003986     0.13600
H1957       H  0.57381417  0.22204798  0.44643973     0.10100
H1958       H  0.60349119  0.22260870  0.41463008     0.12200
H1959       H  0.58173513  0.27029314  0.37647663     0.08800
H1960       H  0.55179884  0.26975495  0.40863114     0.11600
C1961       C  0.42123794  0.06825596  0.66687766    -0.03000
C1962       C  0.44005248  0.07697043  0.66363442    -0.05600
C1963       C  0.44058236  0.09440919  0.65544277    -0.20700
C1964       C  0.42238094  0.10354304  0.64991462     0.25000
C1965       C  0.40347429  0.09503226  0.65408349    -0.18300
C1966       C  0.40293533  0.07756378  0.66249583    -0.08200
C1967       C  0.42395521  0.12190500  0.64020105    -0.18500
C1968       C  0.40916007  0.13023501  0.62536448    -0.23300
C1969       C  0.41109776  0.14855271  0.61556688     0.27100
C1970       C  0.39317876  0.15833127  0.61144421    -0.20100
C1971       C  0.39427857  0.17573853  0.60307951    -0.09700
C1972       C  0.41338225  0.18377535  0.59842576    -0.10300
C1973       C  0.43133166  0.17381907  0.60157146    -0.03200
C1974       C  0.43021869  0.15637229  0.60991720    -0.18300
H1975       H  0.45445196  0.07024215  0.66701789     0.10800
H1976       H  0.45533569  0.10068710  0.65277098     0.10800
H1977       H  0.38907095  0.10176077  0.65103293     0.10500
H1978       H  0.38819232  0.07125115  0.66494158     0.11600
H1979       H  0.43818457  0.12862271  0.64498363     0.11700
H1980       H  0.39483587  0.12365428  0.62066200     0.13600
H1981       H  0.37825938  0.15258381  0.61532576     0.10100
H1982       H  0.38012477  0.18299609  0.60086215     0.12200
H1983       H  0.44626859  0.17954249  0.59780317     0.08800
H1984       H  0.44435169  0.14908154  0.61172504     0.11600
C1985       C  0.21760019  0.00605400  0.34144852    -0.03000
C1986       C  0.21293279  0.01715488  0.31834591    -0.05600
C1987       C  0.22571410  0.01778875  0.29418520    -0.20700
C1988       C  0.24328727  0.00728913  0.29257366     0.25000
C1989       C  0.24846559  0.99679418  0.31626086    -0.18300
C1990       C  0.23569178  0.99612697  0.34035069    -0.08200
C1991       C  0.25570996  0.00754015  0.26583319    -0.18500
C1992       C  0.26753064  0.99410692  0.25737830    -0.23300
C1993       C  0.27924533  0.99406641  0.23005325     0.27100
C1994       C  0.29709518  0.98393445  0.22805215    -0.20100
C1995       C  0.30863634  0.98368946  0.20266135    -0.09700
C1996       C  0.30235493  0.99344786  0.17867454    -0.10300
C1997       C  0.28412964  0.00319203  0.18046376    -0.03200
C1998       C  0.27266107  0.00347040  0.20582705    -0.18300
H1999       H  0.19918062  0.02506039  0.31862793     0.10800
H2000       H  0.22156335  0.02616168  0.27635859     0.10800
H2001       H  0.26234827  0.98909516  0.31641437     0.10500
H2002       H  0.23992314  0.98767596  0.35802432     0.11600
H2003       H  0.25442974  0.01896329  0.25225815     0.11700
H2004       H  0.26890762  0.98266624  0.27086273     0.13600
H2005       H  0.30230070  0.97640598  0.24636219     0.10100
H2006       H  0.32256224  0.97601938  0.20194015     0.12200
H2007       H  0.27872698  0.01072422  0.16228025     0.08800
H2008       H  0.25854834  0.01087338  0.20617714     0.11600
C2009       C  0.41581785  0.00181206  0.14118261    -0.03000
C2010       C  0.43237648  0.01190007  0.13131955    -0.05600
C2011       C  0.45023001  0.01363023  0.14796788    -0.20700
C2012       C  0.45205294  0.00524976  0.17475861     0.25000
C2013       C  0.43538486  0.99523495  0.18464404    -0.18300
C2014       C  0.41762508  0.99347209  0.16801528    -0.08200
C2015       C  0.47119073  0.00770417  0.19211292    -0.18500
C2016       C  0.47691378  0.99681825  0.21347144    -0.23300
C2017       C  0.49566059  0.99861086  0.23179340     0.27100
C2018       C  0.49814955  0.98674512  0.25447959    -0.20100
C2019       C  0.51556429  0.98712432  0.27194226    -0.09700
C2020       C  0.53116438  0.99939538  0.26727646    -0.10300
C2021       C  0.52862264  0.01156926  0.24494159    -0.03200
C2022       C  0.51106756  0.01120050  0.22735028    -0.18300
H2023       H  0.43148884  0.01859247  0.11084466     0.10800
H2024       H  0.46268292  0.02155241  0.13986356     0.10800
H2025       H  0.43561182  0.98903246  0.20551336     0.10500
H2026       H  0.40514222  0.98572558  0.17648367     0.11600
H2027       H  0.48083194  0.01865250  0.18657126     0.11700
H2028       H  0.46747227  0.98555411  0.21785809     0.13600
H2029       H  0.48659343  0.97695720  0.25864023     0.10100
H2030       H  0.51686181  0.97759352  0.28899557     0.12200
H2031       H  0.54032296  0.02122542  0.24079042     0.08800
H2032       H  0.50993238  0.02062195  0.21019514     0.11600
C2033       C  0.27639187  0.99406255  0.02640687    -0.03000
C2034       C  0.26118719  0.00678480  0.03056086    -0.05600
C2035       C  0.24374046  0.00724701  0.01306821    -0.20700
C2036       C  0.24092766  0.99506981  0.99082636     0.25000
C2037       C  0.25592890  0.98204283  0.98703447    -0.18300
C2038       C  0.27345193  0.98158914  0.00459752    -0.08200
C2039       C  0.22203395  0.99657866  0.97268666    -0.18500
C2040       C  0.21816748  0.98728650  0.94852884    -0.23300
C2041       C  0.19907118  0.98915044  0.93082626     0.27100
C2042       C  0.19848017  0.98170797  0.90310907    -0.20100
C2043       C  0.18082159  0.98291111  0.88591534    -0.09700
C2044       C  0.16325041  0.99159276  0.89606037    -0.10300
C2045       C  0.16380468  0.99895957  0.92382663    -0.03200
C2046       C  0.18135142  0.99768420  0.94102023    -0.18300
H2047       H  0.26284795  0.01657687  0.04717834     0.10800
H2048       H  0.23245125  0.01734600  0.01679410     0.10800
H2049       H  0.25435364  0.97213850  0.97068018     0.10500
H2050       H  0.28482252  0.97157101  0.00084657     0.11600
H2051       H  0.21110269  0.00637968  0.97944172     0.11700
H2052       H  0.22956846  0.97818804  0.94066525     0.13600
H2053       H  0.21177170  0.97493600  0.89466865     0.10100
H2054       H  0.18095116  0.97705090  0.86468429     0.12200
H2055       H  0.15053497  0.00563516  0.93252460     0.08800
H2056       H  0.18061113  0.00318107  0.96242077     0.11600
C2057       C  0.37304956  0.00298284  0.98068571    -0.03000
C2058       C  0.38971957  0.01334231  0.97214881    -0.05600
C2059       C  0.39415480  0.01561360  0.94285293    -0.20700
C2060       C  0.38173745  0.00792928  0.92166578     0.25000
C2061       C  0.36509640  0.99757834  0.93023496    -0.18300
C2062       C  0.36084788  0.99510820  0.95937562    -0.08200
C2063       C  0.38731927  0.00964745  0.89086458    -0.18500
C2064       C  0.37336322  0.00900785  0.86948137    -0.23300
C2065       C  0.37932504  0.00787404  0.83873242     0.27100
C2066       C  0.36647924  0.01485882  0.81738044    -0.20100
C2067       C  0.37163975  0.01328757  0.78814775    -0.09700
C2068       C  0.38946202  0.00427574  0.77987729    -0.10300
C2069       C  0.40202906  0.99701190  0.80134917    -0.03200
C2070       C  0.39707051  0.99882487  0.83038634    -0.18300
H2071       H  0.39938176  0.01957493  0.98806425     0.10800
H2072       H  0.40725070  0.02344100  0.93669787     0.10800
H2073       H  0.35562445  0.99100223  0.91449222     0.10500
H2074       H  0.34784582  0.98707956  0.96518026     0.11600
H2075       H  0.40346119  0.01131203  0.88566861     0.11700
H2076       H  0.35709007  0.00917049  0.87458871     0.13600
H2077       H  0.35254400  0.02165553  0.82336353     0.10100
H2078       H  0.36166472  0.01898577  0.77207361     0.12200
H2079       H  0.41591443  0.99002533  0.79575608     0.08800
H2080       H  0.40694165  0.99278541  0.84623257     0.11600
C2081       C  0.52652388  0.24610617  0.98743486    -0.03000
C2082       C  0.51213443  0.25966486  0.98552852    -0.05600
C2083       C  0.49472315  0.25985389  0.00316615    -0.20700
C2084       C  0.49120537  0.24656778  0.02330611     0.25000
C2085       C  0.50536968  0.23275883  0.02482752    -0.18300
C2086       C  0.52284425  0.23257912  0.00715473    -0.08200
C2087       C  0.47232328  0.24756899  0.04151060    -0.18500
C2088       C  0.46903076  0.23815392  0.06566439    -0.23300
C2089       C  0.44994332  0.23943503  0.08350737     0.27100
C2090       C  0.44994306  0.23265027  0.11167165    -0.20100
C2091       C  0.43228003  0.23346062  0.12899085    -0.09700
C2092       C  0.41417959  0.24110832  0.11850634    -0.10300
C2093       C  0.41413694  0.24770624  0.09023184    -0.03200
C2094       C  0.43165514  0.24678109  0.07292018    -0.18300
H2095       H  0.51439904  0.27027868  0.97056239     0.10800
H2096       H  0.48402647  0.27056540  0.00122850     0.10800
H2097       H  0.50302901  0.22197164  0.03934298     0.10500
H2098       H  0.53352411  0.22185975  0.00904733     0.11600
H2099       H  0.46104404  0.25714135  0.03505903     0.11700
H2100       H  0.48097159  0.22955704  0.07344916     0.13600
H2101       H  0.46370203  0.22676464  0.12037494     0.10100
H2102       H  0.43285444  0.22822989  0.15063122     0.12200
H2103       H  0.40041963  0.25349779  0.08123479     0.08800
H2104       H  0.43050142  0.25160672  0.05113007     0.11600
C2105       C  0.38457500  0.24255318  0.48268679    -0.03000
C2106       C  0.36845662  0.23126385  0.47532383    -0.05600
C2107       C  0.36414238  0.22767582  0.44631014    -0.20700
C2108       C  0.37615514  0.23495894  0.42427145     0.25000
C2109       C  0.39208332  0.24638048  0.43166327    -0.18300
C2110       C  0.39619473  0.25015253  0.46045772    -0.08200
C2111       C  0.37092845  0.23170053  0.39364690    -0.18500
C2112       C  0.38515383  0.23172884  0.37250739    -0.23300
C2113       C  0.37980058  0.23220092  0.34143999     0.27100
C2114       C  0.39384502  0.22604295  0.32075733    -0.20100
C2115       C  0.38995083  0.22811769  0.29120389    -0.09700
C2116       C  0.37220129  0.23684337  0.28200918    -0.10300
C2117       C  0.35807889  0.24274140  0.30277839    -0.03200
C2118       C  0.36177936  0.24042873  0.33206598    -0.18300
H2119       H  0.35923712  0.22520594  0.49192267     0.10800
H2120       H  0.35154047  0.21906913  0.44105389     0.10800
H2121       H  0.40115080  0.25271788  0.41519739     0.10500
H2122       H  0.40871941  0.25893038  0.46525874     0.11600
H2123       H  0.35488208  0.22959321  0.38838695     0.11700
H2124       H  0.40133799  0.23206159  0.37810552     0.13600
H2125       H  0.40796597  0.21983037  0.32751181     0.10100
H2126       H  0.40104705  0.22340770  0.27566021     0.12200
H2127       H  0.34412775  0.24936246  0.29638789     0.08800
H2128       H  0.35088047  0.24578295  0.34728479     0.11600
C2129       C  0.34423880  0.06417301  0.09928087    -0.03000
C2130       C  0.36064371  0.07491858  0.09113003    -0.05600
C2131       C  0.36111339  0.09234930  0.09963407    -0.20700
C2132       C  0.34528759  0.09944170  0.11655944     0.25000
C2133       C  0.32879661  0.08867320  0.12460631    -0.18300
C2134       C  0.32824119  0.07129666  0.11587948    -0.08200
C2135       C  0.34716969  0.11780586  0.12634168    -0.18500
C2136       C  0.33169568  0.12715294  0.13790258    -0.23300
C2137       C  0.33411825  0.14545704  0.14757243     0.27100
C2138       C  0.31680270  0.15629349  0.14822481    -0.20100
C2139       C  0.31855279  0.17371118  0.15642820    -0.09700
C2140       C  0.33768081  0.18065676  0.16445587    -0.10300
C2141       C  0.35489008  0.16963376  0.16480062    -0.03200
C2142       C  0.35313281  0.15221815  0.15656169    -0.18300
H2143       H  0.37323116  0.06981998  0.07841645     0.10800
H2144       H  0.37405156  0.10028725  0.09321498     0.10800
H2145       H  0.31653551  0.09333335  0.13826451     0.10500
H2146       H  0.31552378  0.06329380  0.12290087     0.11600
H2147       H  0.36193192  0.12401091  0.12302213     0.11700
H2148       H  0.31639388  0.12168903  0.13904798     0.13600
H2149       H  0.30192729  0.15135763  0.14179399     0.10100
H2150       H  0.30494685  0.18179713  0.15602340     0.12200
H2151       H  0.36980461  0.17449883  0.17114789     0.08800
H2152       H  0.36668344  0.14411298  0.15746656     0.11600
C2153       C  0.11378506  0.06350555  0.83520290    -0.03000
C2154       C  0.13123434  0.06847499  0.85094389    -0.05600
C2155       C  0.13850561  0.08552490  0.84963635    -0.20700
C2156       C  0.12804588  0.09806371  0.83344590     0.25000
C2157       C  0.11042310  0.09321666  0.81795375    -0.18300
C2158       C  0.10351844  0.07598375  0.81848554    -0.08200
C2159       C  0.13616754  0.11598961  0.83232261    -0.18500
C2160       C  0.12407943  0.12992649  0.83639116    -0.23300
C2161       C  0.13235769  0.14785085  0.83696728     0.27100
C2162       C  0.12464730  0.15976832  0.85712505    -0.20100
C2163       C  0.13204264  0.17681270  0.85790501    -0.09700
C2164       C  0.14686783  0.18242116  0.83793482    -0.10300
C2165       C  0.15437544  0.17053266  0.81745889    -0.03200
C2166       C  0.14735029  0.15334491  0.81717645    -0.18300
H2167       H  0.13953059  0.05905441  0.86377856     0.10800
H2168       H  0.15218019  0.08899934  0.86157514     0.10800
H2169       H  0.10228658  0.10267076  0.80499801     0.10500
H2170       H  0.09006275  0.07244398  0.80612652     0.11600
H2171       H  0.15266539  0.11769235  0.83045861     0.11700
H2172       H  0.10794516  0.12804412  0.84144842     0.13600
H2173       H  0.11300905  0.15582588  0.87245902     0.10100
H2174       H  0.12581323  0.18572597  0.87375012     0.12200
H2175       H  0.16572879  0.17450976  0.80174877     0.08800
H2176       H  0.15328820  0.14446070  0.80107870     0.11600
C2177       C  0.21390953  0.24375208  0.92466403    -0.03000
C2178       C  0.20862576  0.23371358  0.94881190    -0.05600
C2179       C  0.22150371  0.23316033  0.97284507    -0.20700
C2180       C  0.23982343  0.24272378  0.97342778     0.25000
C2181       C  0.24542268  0.25240532  0.94896855    -0.18300
C2182       C  0.23256893  0.25293127  0.92489555    -0.08200
C2183       C  0.25263016  0.24207967  0.99984182    -0.18500
C2184       C  0.26601149  0.25461545  0.00744851    -0.23300
C2185       C  0.27790148  0.25420172  0.03474235     0.27100
C2186       C  0.29634713  0.26354823  0.03655227    -0.20100
C2187       C  0.30801479  0.26333423  0.06185750    -0.09700
C2188       C  0.30133177  0.25386558  0.08598671    -0.10300
C2189       C  0.28256454  0.24492410  0.08439922    -0.03200
C2190       C  0.27094296  0.24513899  0.05916948    -0.18300
H2191       H  0.19442335  0.22643221  0.94931189     0.10800
H2192       H  0.21693807  0.22546479  0.99130586     0.10800
H2193       H  0.25974559  0.25946064  0.94812648     0.10500
H2194       H  0.23722100  0.26064799  0.90651494     0.11600
H2195       H  0.25033699  0.23101164  0.01393138     0.11700
H2196       H  0.26849705  0.26564088  0.99333427     0.13600
H2197       H  0.30190479  0.27082944  0.01816592     0.10100
H2198       H  0.32236780  0.27040078  0.06238338     0.12200
H2199       H  0.27683301  0.23764041  0.10266484     0.08800
H2200       H  0.25641428  0.23837303  0.05915742     0.11600
C2201       C  0.98513761  0.25450954  0.02841915    -0.03000
C2202       C  0.00063439  0.24221482  0.03378087    -0.05600
C2203       C  0.01848419  0.24185025  0.01705052    -0.20700
C2204       C  0.02134199  0.25363709  0.99431796     0.25000
C2205       C  0.00600590  0.26620303  0.98924710    -0.18300
C2206       C  0.98811443  0.26659464  0.00609225    -0.08200
C2207       C  0.04064430  0.25235154  0.97700715    -0.18500
C2208       C  0.04362167  0.25998011  0.95111967    -0.23300
C2209       C  0.06274805  0.25808231  0.93349367     0.27100
C2210       C  0.06240968  0.26339159  0.90449868    -0.20100
C2211       C  0.07986757  0.26181040  0.88700832    -0.09700
C2212       C  0.09816703  0.25484271  0.89808679    -0.10300
C2213       C  0.09862303  0.24974083  0.92719404    -0.03200
C2214       C  0.08123840  0.25142413  0.94471411    -0.18300
H2215       H  0.99895420  0.23275994  0.05088126     0.10800
H2216       H  0.03004676  0.23213264  0.02173092     0.10800
H2217       H  0.00770388  0.27586465  0.97255214     0.10500
H2218       H  0.97652195  0.27627872  0.00143820     0.11600
H2219       H  0.05248553  0.24397257  0.98568308     0.11700
H2220       H  0.03124068  0.26740284  0.94155307     0.13600
H2221       H  0.04850689  0.26870702  0.89523790     0.10100
H2222       H  0.07897332  0.26594921  0.86474539     0.12200
H2223       H  0.11252423  0.24453155  0.93660562     0.08800
H2224       H  0.08262782  0.24765865  0.96704599     0.11600
C2225       C  0.34768025  0.25059845  0.64820002    -0.03000
C2226       C  0.34741068  0.26143088  0.67265638    -0.05600
C2227       C  0.33041457  0.26187866  0.69095110    -0.20700
C2228       C  0.31328787  0.25135060  0.68569315     0.25000
C2229       C  0.31336766  0.24050208  0.66119288    -0.18300
C2230       C  0.33040158  0.24017957  0.64258014    -0.08200
C2231       C  0.29556488  0.25268633  0.70586139    -0.18500
C2232       C  0.28206201  0.23975931  0.71084531    -0.23300
C2233       C  0.26483965  0.24099664  0.73209151     0.27100
C2234       C  0.24890147  0.22874683  0.73066561    -0.20100
C2235       C  0.23234570  0.22946318  0.74991908    -0.09700
C2236       C  0.23133661  0.24245704  0.77122515    -0.10300
C2237       C  0.24747939  0.25449660  0.77309337    -0.03200
C2238       C  0.26406680  0.25373763  0.75394587    -0.18300
H2239       H  0.36034749  0.26971228  0.67768095     0.10800
H2240       H  0.33072915  0.27043684  0.70951389     0.10800
H2241       H  0.30021439  0.23252957  0.65603050     0.10500
H2242       H  0.33006580  0.23175754  0.62387234     0.11600
H2243       H  0.29421257  0.26478820  0.71765888     0.11700
H2244       H  0.28359935  0.22768484  0.69891754     0.13600
H2245       H  0.24912528  0.21867500  0.71433513     0.10100
H2246       H  0.22018995  0.21996444  0.74782572     0.12200
H2247       H  0.24731176  0.26457921  0.78939374     0.08800
H2248       H  0.27624016  0.26309160  0.75676553     0.11600
C2249       C  0.15221753  0.56524703  0.93134979    -0.03000
C2250       C  0.16258320  0.57707864  0.94913619    -0.05600
C2251       C  0.15662486  0.59452462  0.94985006    -0.20700
C2252       C  0.13975733  0.60025182  0.93367159     0.25000
C2253       C  0.12903246  0.58831468  0.91642825    -0.18300
C2254       C  0.13538756  0.57098422  0.91501527    -0.08200
C2255       C  0.13461519  0.61894876  0.93340954    -0.18500
C2256       C  0.11521899  0.62488251  0.93289065    -0.23300
C2257       C  0.11081292  0.64370368  0.93160580     0.27100
C2258       C  0.09567087  0.65097687  0.94943391    -0.20100
C2259       C  0.09192538  0.66889286  0.94892025    -0.09700
C2260       C  0.10277276  0.67963992  0.92978430    -0.10300
C2261       C  0.11746237  0.67221712  0.91133419    -0.03200
C2262       C  0.12159683  0.65444650  0.91243799    -0.18300
H2263       H  0.17563252  0.57292512  0.96183139     0.10800
H2264       H  0.16518140  0.60358243  0.96306857     0.10800
H2265       H  0.11619441  0.59249469  0.90334437     0.10500
H2266       H  0.12711273  0.56202945  0.90125325     0.11600
H2267       H  0.14721774  0.62816203  0.93464943     0.11700
H2268       H  0.10245660  0.61587582  0.93470412     0.13600
H2269       H  0.08710568  0.64285139  0.96419956     0.10100
H2270       H  0.08044355  0.67432441  0.96323056     0.12200
H2271       H  0.12606018  0.68022944  0.89643265     0.08800
H2272       H  0.13310758  0.64905295  0.89813154     0.11600
C2273       C  0.10350711  0.49719614  0.86372939    -0.03000
C2274       C  0.10165248  0.50991273  0.84212480    -0.05600
C2275       C  0.08441653  0.51053015  0.82433114    -0.20700
C2276       C  0.06856317  0.49835795  0.82722499     0.25000
C2277       C  0.07022727  0.48562186  0.84896518    -0.18300
C2278       C  0.08751812  0.48510094  0.86709016    -0.08200
C2279       C  0.05051653  0.49997586  0.80758428    -0.18500
C2280       C  0.03709492  0.48709284  0.80187024    -0.23300
C2281       C  0.01933044  0.48894062  0.78170647     0.27100
C2282       C  0.00300748  0.47712602  0.78392760    -0.20100
C2283       C  0.98603571  0.47825118  0.76554022    -0.09700
C2284       C  0.98497835  0.49118431  0.74419043    -0.10300
C2285       C  0.00144028  0.50288781  0.74162648    -0.03200
C2286       C  0.01844071  0.50176007  0.76004152    -0.18300
H2287       H  0.11351878  0.51957169  0.83901574     0.10800
H2288       H  0.08354298  0.52056896  0.80802553     0.10800
H2289       H  0.05814263  0.47624836  0.85245342     0.10500
H2290       H  0.08841435  0.47520486  0.88360803     0.11600
H2291       H  0.04856565  0.51242954  0.79704472     0.11700
H2292       H  0.03890124  0.47466005  0.81254428     0.13600
H2293       H  0.00329730  0.46702735  0.80016438     0.10100
H2294       H  0.97369826  0.46897332  0.76814329     0.12200
H2295       H  0.00124929  0.51291280  0.72527327     0.08800
H2296       H  0.03090942  0.51078980  0.75677423     0.11600
C2297       C  0.16754989  0.31549792  0.84929295    -0.03000
C2298       C  0.14891669  0.32460083  0.85168248    -0.05600
C2299       C  0.14867467  0.34207157  0.85983755    -0.20700
C2300       C  0.16698886  0.35090839  0.86596083     0.25000
C2301       C  0.18572673  0.34192944  0.86300560    -0.18300
C2302       C  0.18596887  0.32439888  0.85487175    -0.08200
C2303       C  0.16565959  0.36948374  0.87477307    -0.18500
C2304       C  0.18070156  0.37819489  0.88852051    -0.23300
C2305       C  0.17877574  0.39673099  0.89729572     0.27100
C2306       C  0.19664232  0.40672490  0.90034298    -0.20100
C2307       C  0.19545568  0.42430865  0.90783135    -0.09700
C2308       C  0.17632988  0.43226487  0.91279558    -0.10300
C2309       C  0.15847444  0.42209824  0.91072288    -0.03200
C2310       C  0.15966500  0.40453639  0.90313102    -0.18300
H2311       H  0.13442551  0.31816377  0.84767516     0.10800
H2312       H  0.13403590  0.34866130  0.86174656     0.10800
H2313       H  0.20025207  0.34832943  0.86662526     0.10500
H2314       H  0.20060063  0.31780066  0.85307033     0.11600
H2315       H  0.15138837  0.37614077  0.86995483     0.11700
H2316       H  0.19515749  0.37179782  0.89311756     0.13600
H2317       H  0.21156736  0.40098752  0.89636145     0.10100
H2318       H  0.20953563  0.43170898  0.90940750     0.12200
H2319       H  0.14350619  0.42774691  0.91467170     0.08800
H2320       H  0.14558285  0.39713783  0.90215409     0.11600
C2321       C  0.11272227  0.18280280  0.43283638    -0.03000
C2322       C  0.12860027  0.17697320  0.41470448    -0.05600
C2323       C  0.13660446  0.16023767  0.41762741    -0.20700
C2324       C  0.12847707  0.14877470  0.43806819     0.25000
C2325       C  0.11237102  0.15441637  0.45599482    -0.18300
C2326       C  0.10474338  0.17140440  0.45366675    -0.08200
C2327       C  0.13739092  0.13113465  0.44049994    -0.18500
C2328       C  0.12563027  0.11687416  0.44247013    -0.23300
C2329       C  0.13446337  0.09916623  0.44072209     0.27100
C2330       C  0.12485222  0.08678094  0.42321225    -0.20100
C2331       C  0.13305028  0.07008953  0.42052514    -0.09700
C2332       C  0.15064193  0.06525816  0.43608958    -0.10300
C2333       C  0.16002072  0.07751635  0.45423909    -0.03200
C2334       C  0.15216311  0.09444884  0.45620890    -0.18300
H2335       H  0.13523502  0.18553810  0.39870864     0.10800
H2336       H  0.14905319  0.15615724  0.40368024     0.10800
H2337       H  0.10603356  0.14582793  0.47218332     0.10500
H2338       H  0.09259822  0.17560911  0.46802004     0.11600
H2339       H  0.15384287  0.12969406  0.43745495     0.11700
H2340       H  0.10902916  0.11821433  0.44213843     0.13600
H2341       H  0.11117154  0.09013489  0.41118973     0.10100
H2342       H  0.12537875  0.06081341  0.40665266     0.12200
H2343       H  0.17353123  0.07406569  0.46654336     0.08800
H2344       H  0.15969028  0.10376745  0.47014143     0.11600
C2345       C  0.04937731  0.24460165  0.33751337    -0.03000
C2346       C  0.05463199  0.23461257  0.31324292    -0.05600
C2347       C  0.04189283  0.23443414  0.28902929    -0.20700
C2348       C  0.02377304  0.24430149  0.28850850     0.25000
C2349       C  0.01820341  0.25387733  0.31312233    -0.18300
C2350       C  0.03091868  0.25407564  0.33727297    -0.08200
C2351       C  0.01099349  0.24408216  0.26211443    -0.18500
C2352       C  0.99805091  0.25702563  0.25490265    -0.23300
C2353       C  0.98564795  0.25691092  0.22814964     0.27100
C2354       C  0.96749250  0.26672064  0.22715180    -0.20100
C2355       C  0.95520701  0.26665067  0.20246667    -0.09700
C2356       C  0.96098241  0.25684062  0.17822707    -0.10300
C2357       C  0.97951450  0.24749023  0.17893849    -0.03200
C2358       C  0.99175605  0.24757305  0.20353625    -0.18300
H2359       H  0.06871086  0.22713567  0.31278075     0.10800
H2360       H  0.04639326  0.22679890  0.27042482     0.10800
H2361       H  0.00397778  0.26109405  0.31405181     0.10500
H2362       H  0.02626653  0.26172457  0.35577464     0.11600
H2363       H  0.01278194  0.23296749  0.24792287     0.11700
H2364       H  0.99618897  0.26812550  0.26910349     0.13600
H2365       H  0.96261836  0.27421784  0.24572173     0.10100
H2366       H  0.94107190  0.27405789  0.20253539     0.12200
H2367       H  0.98457567  0.23998561  0.16048485     0.08800
H2368       H  0.00606240  0.24045853  0.20294179     0.11600
C2369       C  0.91463129  0.24069324  0.61626683    -0.03000
C2370       C  0.93313408  0.23401122  0.62719647    -0.05600
C2371       C  0.95066127  0.23301223  0.60970178    -0.20700
C2372       C  0.95017152  0.23871341  0.58093019     0.25000
C2373       C  0.93151235  0.24504425  0.56982776    -0.18300
C2374       C  0.91405035  0.24610886  0.58731132    -0.08200
C2375       C  0.96924151  0.23753132  0.56311709    -0.18500
C2376       C  0.97255448  0.24720813  0.53929042    -0.23300
C2377       C  0.99174990  0.24669441  0.52170320     0.27100
C2378       C  0.99585267  0.26063652  0.50306832    -0.20100
C2379       C  0.01358841  0.26085518  0.48605502    -0.09700
C2380       C  0.02769776  0.24704597  0.48707257    -0.10300
C2381       C  0.02347097  0.23292181  0.50537927    -0.03200
C2382       C  0.00568885  0.23270208  0.52242693    -0.18300
H2383       H  0.93412518  0.22965296  0.64933388     0.10800
H2384       H  0.96473298  0.22791200  0.61878509     0.10800
H2385       H  0.93014001  0.24897013  0.54754749     0.10500
H2386       H  0.89999865  0.25108170  0.57798941     0.11600
H2387       H  0.98131239  0.22906079  0.57094269     0.11700
H2388       H  0.96114454  0.25673626  0.53299513     0.13600
H2389       H  0.98535441  0.27152918  0.50183595     0.10100
H2390       H  0.01629415  0.27194101  0.47222260     0.12200
H2391       H  0.03391914  0.22200125  0.50656348     0.08800
H2392       H  0.00288176  0.22145310  0.53577984     0.11600
C2393       C  0.16439697  0.24928770  0.36600934    -0.03000
C2394       C  0.16672526  0.23617867  0.34514341    -0.05600
C2395       C  0.18366487  0.23599723  0.32673717    -0.20700
C2396       C  0.19863756  0.24903887  0.32824313     0.25000
C2397       C  0.19652612  0.26213904  0.34933716    -0.18300
C2398       C  0.17958790  0.26219164  0.36813619    -0.08200
C2399       C  0.21622472  0.24799149  0.30773028    -0.18500
C2400       C  0.22847930  0.26140864  0.30050003    -0.23300
C2401       C  0.24553610  0.25977610  0.27916242     0.27100
C2402       C  0.26219742  0.27127168  0.28085057    -0.20100
C2403       C  0.27877525  0.26980179  0.26176698    -0.09700
C2404       C  0.27900302  0.25686099  0.24029840    -0.10300
C2405       C  0.26198638  0.24574747  0.23793956    -0.03200
C2406       C  0.24541727  0.24722183  0.25701912    -0.18300
H2407       H  0.15541788  0.22595408  0.34304652     0.10800
H2408       H  0.18493592  0.22566820  0.31093857     0.10800
H2409       H  0.20795297  0.27220866  0.35169738     0.10500
H2410       H  0.17820967  0.27245751  0.38400779     0.11600
H2411       H  0.21882988  0.23544656  0.29767642     0.11700
H2412       H  0.22632630  0.27394836  0.31076368     0.13600
H2413       H  0.26259785  0.28120399  0.29740678     0.10100
H2414       H  0.29159055  0.27862546  0.26420173     0.12200
H2415       H  0.26153444  0.23576027  0.22149092     0.08800
H2416       H  0.23252601  0.23856466  0.25412826     0.11600
C2417       C  0.12406838  0.25647769  0.53085082    -0.03000
C2418       C  0.14317156  0.26284769  0.53996386    -0.05600
C2419       C  0.14743647  0.26451514  0.56949108    -0.20700
C2420       C  0.13252444  0.26026885  0.59027629     0.25000
C2421       C  0.11332230  0.25420429  0.58098071    -0.18300
C2422       C  0.10918485  0.25233648  0.55170369    -0.08200
C2423       C  0.13786445  0.26076018  0.62139643    -0.18500
C2424       C  0.12371827  0.26232238  0.64253119    -0.23300
C2425       C  0.12863394  0.26005615  0.67355132     0.27100
C2426       C  0.11619229  0.26795049  0.69461285    -0.20100
C2427       C  0.12012676  0.26540969  0.72403356    -0.09700
C2428       C  0.13630502  0.25457632  0.73284172    -0.10300
C2429       C  0.14844429  0.24643625  0.71165234    -0.03200
C2430       C  0.14469036  0.24914110  0.68243960    -0.18300
H2431       H  0.15492139  0.26610071  0.52436400     0.10800
H2432       H  0.16245578  0.26900242  0.57614064     0.10800
H2433       H  0.10164542  0.25027393  0.59621466     0.10500
H2434       H  0.09424260  0.24749675  0.54538757     0.11600
H2435       H  0.15398121  0.25957456  0.62698989     0.11700
H2436       H  0.10791308  0.26531302  0.63705806     0.13600
H2437       H  0.10350494  0.27619801  0.68826918     0.10100
H2438       H  0.11051635  0.27185586  0.73982327     0.12200
H2439       H  0.16109363  0.23804354  0.71760560     0.08800
H2440       H  0.15414823  0.24233692  0.66691141     0.11600
C2441       C  0.14818583  0.68408755  0.32317509    -0.03000
C2442       C  0.13081098  0.67904760  0.33905065    -0.05600
C2443       C  0.12300350  0.66221229  0.33666116    -0.20700
C2444       C  0.13277535  0.64990042  0.31910189     0.25000
C2445       C  0.15033152  0.65481888  0.30343220    -0.18300
C2446       C  0.15781209  0.67186330  0.30516062    -0.08200
C2447       C  0.12408497  0.63213854  0.31721156    -0.18500
C2448       C  0.13599043  0.61788824  0.31697648    -0.23300
C2449       C  0.12730628  0.60014349  0.31874913     0.27100
C2450       C  0.13652739  0.58811067  0.33727293    -0.20100
C2451       C  0.12868614  0.57131493  0.33974380    -0.09700
C2452       C  0.11186361  0.56599490  0.32298913    -0.10300
C2453       C  0.10284346  0.57791096  0.30389153    -0.03200
C2454       C  0.11032457  0.59497141  0.30210128    -0.18300
H2455       H  0.12294639  0.68828052  0.35282984     0.10800
H2456       H  0.10942296  0.65872462  0.34882016     0.10800
H2457       H  0.15798443  0.64560669  0.28940303     0.10500
H2458       H  0.17116589  0.67546212  0.29261781     0.11600
H2459       H  0.10754089  0.63067956  0.31888948     0.11700
H2460       H  0.15253799  0.61930325  0.31861418     0.13600
H2461       H  0.14966997  0.59180389  0.35017367     0.10100
H2462       H  0.13610202  0.56232113  0.35436026     0.12200
H2463       H  0.08993954  0.57408379  0.29064452     0.08800
H2464       H  0.10313326  0.60400723  0.28735300     0.11600
C2465       C  0.96587031  0.49419297  0.58697606    -0.03000
C2466       C  0.96071371  0.48366887  0.56330204    -0.05600
C2467       C  0.97237006  0.48417593  0.53807450    -0.20700
C2468       C  0.98933645  0.49528575  0.53576095     0.25000
C2469       C  0.99478782  0.50560182  0.55963087    -0.18300
C2470       C  0.98313484  0.50506741  0.58494416    -0.08200
C2471       C  0.00115640  0.49523799  0.50838906    -0.18500
C2472       C  0.01346123  0.50830182  0.49979334    -0.23300
C2473       C  0.02527494  0.50775356  0.47241408     0.27100
C2474       C  0.04347916  0.51738458  0.47025217    -0.20100
C2475       C  0.05543654  0.51664570  0.44523177    -0.09700
C2476       C  0.04931042  0.50634146  0.42172426    -0.10300
C2477       C  0.03069332  0.49719647  0.42352774    -0.03200
C2478       C  0.01875208  0.49795359  0.44849970    -0.18300
H2479       H  0.94755598  0.47510376  0.56413524     0.10800
H2480       H  0.96795688  0.47597301  0.52012807     0.10800
H2481       H  0.00814083  0.51391162  0.55912583     0.10500
H2482       H  0.98760938  0.51325067  0.60287267     0.11600
H2483       H  0.99938783  0.48389832  0.49470765     0.11700
H2484       H  0.01551442  0.51961412  0.51343880     0.13600
H2485       H  0.04870081  0.52520912  0.48822951     0.10100
H2486       H  0.06963549  0.52392724  0.44450356     0.12200
H2487       H  0.02535581  0.48934309  0.40566437     0.08800
H2488       H  0.00438663  0.49093644  0.44881045     0.11600
C2489       C  0.02748723  0.50126975  0.26748647    -0.03000
C2490       C  0.01254531  0.48824670  0.27057205    -0.05600
C2491       C  0.99540784  0.48774558  0.25245026    -0.20700
C2492       C  0.99264485  0.50019865  0.23065370     0.25000
C2493       C  0.00753812  0.51335083  0.22764445    -0.18300
C2494       C  0.02475421  0.51382289  0.24578777    -0.08200
C2495       C  0.97372694  0.49904365  0.21247336    -0.18500
C2496       C  0.96981011  0.50882045  0.18888239    -0.23300
C2497       C  0.95036120  0.50781501  0.17173677     0.27100
C2498       C  0.94937731  0.51622815  0.14484104    -0.20100
C2499       C  0.93131271  0.51601132  0.12837405    -0.09700
C2500       C  0.91372610  0.50738050  0.13846287    -0.10300
C2501       C  0.91469158  0.49901629  0.16537724    -0.03200
C2502       C  0.93264147  0.49928673  0.18183068    -0.18300
H2503       H  0.01411898  0.47831944  0.28694154     0.10800
H2504       H  0.98423299  0.47750182  0.25550160     0.10800
H2505       H  0.00603376  0.52342718  0.21161344     0.10500
H2506       H  0.03595676  0.52403776  0.24276196     0.11600
H2507       H  0.96269706  0.48929651  0.21895015     0.11700
H2508       H  0.98131628  0.51786164  0.18127788     0.13600
H2509       H  0.96265613  0.52302654  0.13651187     0.10100
H2510       H  0.93113595  0.52260206  0.10777012     0.12200
H2511       H  0.90145137  0.49228991  0.17398055     0.08800
H2512       H  0.93219752  0.49302541  0.20262235     0.11600
C2513       C  0.14014848  0.48949721  0.02813595    -0.03000
C2514       C  0.12394515  0.47840032  0.03583279    -0.05600
C2515       C  0.11952352  0.47531082  0.06498819    -0.20700
C2516       C  0.13154608  0.48288029  0.08677969     0.25000
C2517       C  0.14774270  0.49391027  0.07898308    -0.18300
C2518       C  0.15194426  0.49718759  0.05010247    -0.08200
C2519       C  0.12589922  0.48058694  0.11748140    -0.18500
C2520       C  0.13977291  0.48152640  0.13897653    -0.23300
C2521       C  0.13382506  0.48343325  0.16965087     0.27100
C2522       C  0.14718014  0.47780284  0.19151038    -0.20100
C2523       C  0.14245409  0.48080903  0.22059748    -0.09700
C2524       C  0.12455142  0.48993158  0.22813901    -0.10300
C2525       C  0.11131737  0.49560557  0.20614796    -0.03200
C2526       C  0.11585078  0.49237541  0.17731893    -0.18300
H2527       H  0.11463037  0.47227303  0.01940985     0.10800
H2528       H  0.10672932  0.46698493  0.07055930     0.10800
H2529       H  0.15686696  0.50045511  0.09516177     0.10500
H2530       H  0.16462179  0.50575372  0.04503314     0.11600
H2531       H  0.10976494  0.47873051  0.12251968     0.11700
H2532       H  0.15605851  0.48159065  0.13392496     0.13600
H2533       H  0.16130174  0.47112414  0.18604126     0.10100
H2534       H  0.15291174  0.47627987  0.23708395     0.12200
H2535       H  0.09731927  0.50258458  0.21118877     0.08800
H2536       H  0.10555580  0.49742130  0.16106352     0.11600
C2537       C  0.09365308  0.43272040  0.34602258    -0.03000
C2538       C  0.07484566  0.42380583  0.34660426    -0.05600
C2539       C  0.07412200  0.40614353  0.35338006    -0.20700
C2540       C  0.09208972  0.39699956  0.36024843     0.25000
C2541       C  0.11100900  0.40581068  0.35927848    -0.18300
C2542       C  0.11176546  0.42348639  0.35215705    -0.08200
C2543       C  0.09033955  0.37826846  0.36768401    -0.18500
C2544       C  0.10379664  0.36979854  0.38470017    -0.23300
C2545       C  0.10161491  0.35122106  0.39329833     0.27100
C2546       C  0.11878181  0.34257671  0.40465212    -0.20100
C2547       C  0.11751806  0.32517948  0.41316191    -0.09700
C2548       C  0.09895075  0.31600404  0.41074173    -0.10300
C2549       C  0.08165816  0.32471255  0.39981879    -0.03200
C2550       C  0.08292139  0.34210318  0.39129241    -0.18300
H2551       H  0.06062075  0.43048297  0.34179548     0.10800
H2552       H  0.05938401  0.39964442  0.35368816     0.10800
H2553       H  0.12526352  0.39909447  0.36359644     0.10500
H2554       H  0.12650667  0.42996725  0.35179466     0.11600
H2555       H  0.07698332  0.37153033  0.35944408     0.11700
H2556       H  0.11706047  0.37671985  0.39292851     0.13600
H2557       H  0.13332252  0.34927285  0.40671554     0.10100
H2558       H  0.13115731  0.31889299  0.42145981     0.12200
H2559       H  0.06709683  0.31806421  0.39769650     0.08800
H2560       H  0.06908862  0.34827950  0.38359145     0.11600
C2561       C  0.39973671  0.81262877  0.07643834    -0.03000
C2562       C  0.38286743  0.81739463  0.09364712    -0.05600
C2563       C  0.37489614  0.83422789  0.09257328    -0.20700
C2564       C  0.38399680  0.84683815  0.07500342     0.25000
C2565       C  0.40102402  0.84222380  0.05793893    -0.18300
C2566       C  0.40866153  0.82516553  0.05835577    -0.08200
C2567       C  0.37507404  0.86456205  0.07448762    -0.18500
C2568       C  0.38677047  0.87891280  0.07524511    -0.23300
C2569       C  0.37781288  0.89655670  0.07794924     0.27100
C2570       C  0.38705204  0.90852771  0.09662784    -0.20100
C2571       C  0.37919331  0.92534218  0.09938474    -0.09700
C2572       C  0.36232613  0.93073086  0.08276276    -0.10300
C2573       C  0.35311358  0.91877952  0.06386265    -0.03200
C2574       C  0.36062999  0.90174404  0.06175106    -0.18300
H2575       H  0.37554369  0.80796805  0.10758256     0.10800
H2576       H  0.36172830  0.83748362  0.10579413     0.10800
H2577       H  0.40813629  0.85170202  0.04389794     0.10500
H2578       H  0.42163202  0.82182200  0.04483239     0.11600
H2579       H  0.35851655  0.86582493  0.07638620     0.11700
H2580       H  0.40334500  0.87759562  0.07663401     0.13600
H2581       H  0.40032433  0.90481381  0.10924469     0.10100
H2582       H  0.38674471  0.93432319  0.11390149     0.12200
H2583       H  0.34015257  0.92261961  0.05073612     0.08800
H2584       H  0.35338456  0.89277833  0.04691728     0.11600
C2585       C  0.55078963  0.74274087  0.33122773    -0.03000
C2586       C  0.55860977  0.73431905  0.30667295    -0.05600
C2587       C  0.54731497  0.73403609  0.28106801    -0.20700
C2588       C  0.52813834  0.74228465  0.27945200     0.25000
C2589       C  0.52008116  0.75031092  0.30421906    -0.18300
C2590       C  0.53132256  0.75058504  0.32976227    -0.08200
C2591       C  0.51660084  0.74178588  0.25198186    -0.18500
C2592       C  0.50324297  0.75430300  0.24418636    -0.23300
C2593       C  0.49078100  0.75372383  0.21742679     0.27100
C2594       C  0.47329375  0.76434155  0.21555109    -0.20100
C2595       C  0.46053835  0.76363658  0.19137057    -0.09700
C2596       C  0.46511889  0.75233729  0.16845703    -0.10300
C2597       C  0.48304189  0.74219444  0.16987194    -0.03200
C2598       C  0.49577443  0.74291183  0.19397800    -0.18300
H2599       H  0.57353414  0.72813206  0.30712769     0.10800
H2600       H  0.55370296  0.72757793  0.26232707     0.10800
H2601       H  0.50499190  0.75617837  0.30412601     0.10500
H2602       H  0.52471197  0.75697705  0.34840295     0.11600
H2603       H  0.51946860  0.73077044  0.23797233     0.11700
H2604       H  0.50083120  0.76534262  0.25839107     0.13600
H2605       H  0.46923962  0.77296482  0.23314146     0.10100
H2606       H  0.44696063  0.77174767  0.19082656     0.12200
H2607       H  0.48720346  0.73352723  0.15240408     0.08800
H2608       H  0.50948369  0.73501545  0.19387423     0.11600
C2609       C  0.60095323  0.75308980  0.89117784    -0.03000
C2610       C  0.58209275  0.75761019  0.87852084    -0.05600
C2611       C  0.56425704  0.75892564  0.89536696    -0.20700
C2612       C  0.56484599  0.75571980  0.92518377     0.25000
C2613       C  0.58382757  0.75158196  0.93789751    -0.18300
C2614       C  0.60157346  0.75017631  0.92109420    -0.08200
C2615       C  0.54558218  0.75718533  0.94248462    -0.18500
C2616       C  0.54275978  0.74876724  0.96769428    -0.23300
C2617       C  0.52360054  0.74960396  0.98523820     0.27100
C2618       C  0.51974535  0.73618182  0.00495431    -0.20100
C2619       C  0.50209794  0.73631981  0.02209843    -0.09700
C2620       C  0.48785838  0.75000697  0.02021403    -0.10300
C2621       C  0.49188189  0.76367160  0.00088446    -0.03200
C2622       C  0.50956512  0.76349295  0.98358825    -0.18300
H2623       H  0.58107879  0.76000828  0.85557129     0.10800
H2624       H  0.54990928  0.76230356  0.88502639     0.10800
H2625       H  0.58519144  0.74968265  0.96090843     0.10500
H2626       H  0.61588519  0.74698149  0.93168399     0.11600
H2627       H  0.53307801  0.76468139  0.93336759     0.11700
H2628       H  0.55461516  0.74000760  0.97529675     0.13600
H2629       H  0.53034946  0.72540605  0.00690536     0.10100
H2630       H  0.49956606  0.72558137  0.03673286     0.12200
H2631       H  0.48130254  0.77445868  0.99897142     0.08800
H2632       H  0.51226589  0.77434020  0.96928751     0.11600
C2633       C  0.23470667  0.74562055  0.26505591    -0.03000
C2634       C  0.25130483  0.75657595  0.27166039    -0.05600
C2635       C  0.26908018  0.75648866  0.25481207    -0.20700
C2636       C  0.27088197  0.74554042  0.23070146     0.25000
C2637       C  0.25442220  0.73428820  0.22425624    -0.18300
C2638       C  0.23654023  0.73435786  0.24125749    -0.08200
C2639       C  0.29033178  0.74640516  0.21356709    -0.18500
C2640       C  0.29342016  0.73891982  0.18752658    -0.23300
C2641       C  0.31295372  0.74044578  0.17056178     0.27100
C2642       C  0.31317185  0.73485564  0.14166518    -0.20100
C2643       C  0.33106226  0.73599191  0.12490449    -0.09700
C2644       C  0.34925487  0.74279187  0.13662011    -0.10300
C2645       C  0.34910852  0.74826716  0.16555709    -0.03200
C2646       C  0.33131887  0.74702505  0.18234147    -0.18300
H2647       H  0.25057433  0.76536207  0.28988367     0.10800
H2648       H  0.28146645  0.76519873  0.26057713     0.10800
H2649       H  0.25519386  0.72534461  0.20632509     0.10500
H2650       H  0.22409648  0.72568701  0.23562681     0.11600
H2651       H  0.30238186  0.75430424  0.22279550     0.11700
H2652       H  0.28099384  0.73179806  0.17750544     0.13600
H2653       H  0.29939804  0.72961671  0.13194034     0.10100
H2654       H  0.33060766  0.73158753  0.10273698     0.12200
H2655       H  0.36287119  0.75340324  0.17545669     0.08800
H2656       H  0.33236049  0.75105730  0.20457973     0.11600
C2657       C  0.36846384  0.31238883  0.18303925    -0.03000
C2658       C  0.38438845  0.31783673  0.16471825    -0.05600
C2659       C  0.39251034  0.33457678  0.16713709    -0.20700
C2660       C  0.38440910  0.34633789  0.18723222     0.25000
C2661       C  0.36845633  0.34095844  0.20554856    -0.18300
C2662       C  0.36072958  0.32403521  0.20371759    -0.08200
C2663       C  0.39276270  0.36417819  0.18863959    -0.18500
C2664       C  0.38038328  0.37811381  0.18957043    -0.23300
C2665       C  0.38845105  0.39598852  0.18733813     0.27100
C2666       C  0.37946662  0.40746945  0.16764446    -0.20100
C2667       C  0.38674234  0.42445296  0.16504534    -0.09700
C2668       C  0.40267608  0.43044556  0.18284538    -0.10300
C2669       C  0.41147667  0.41900990  0.20294491    -0.03200
C2670       C  0.40461234  0.40180746  0.20488310    -0.18300
H2671       H  0.39079846  0.30904073  0.14883343     0.10800
H2672       H  0.40486088  0.33847643  0.15291306     0.10800
H2673       H  0.36216302  0.34978006  0.22147992     0.10500
H2674       H  0.34853775  0.32012009  0.21818700     0.11600
H2675       H  0.40918881  0.36597868  0.18589585     0.11700
H2676       H  0.36384937  0.37631928  0.18891130     0.13600
H2677       H  0.36694659  0.40320884  0.15402303     0.10100
H2678       H  0.37954164  0.43305232  0.14959442     0.12200
H2679       H  0.42371902  0.42334670  0.21697903     0.08800
H2680       H  0.41158963  0.39316133  0.22045856     0.11600
C2681       C  0.46757071  0.48935106  0.08857019    -0.03000
C2682       C  0.46168436  0.47919049  0.06478740    -0.05600
C2683       C  0.47370890  0.47886328  0.03981466    -0.20700
C2684       C  0.49173506  0.48877029  0.03798576     0.25000
C2685       C  0.49810694  0.49830750  0.06225916    -0.18300
C2686       C  0.48611453  0.49863299  0.08719654    -0.08200
C2687       C  0.50344825  0.48878998  0.01051008    -0.18500
C2688       C  0.51601667  0.50183751  0.00256720    -0.23300
C2689       C  0.52749214  0.50204165  0.97492755     0.27100
C2690       C  0.54565396  0.51175936  0.97316102    -0.20100
C2691       C  0.55711921  0.51207441  0.94769070    -0.09700
C2692       C  0.55050813  0.50280449  0.92328369    -0.10300
C2693       C  0.53195863  0.49352346  0.92479247    -0.03200
C2694       C  0.52054375  0.49316552  0.95028819    -0.18300
H2695       H  0.44756840  0.47178371  0.06520798     0.10800
H2696       H  0.46862643  0.47119491  0.02157403     0.10800
H2697       H  0.51233915  0.50551085  0.06223541     0.10500
H2698       H  0.49126921  0.50638966  0.10528230     0.11600
H2699       H  0.50112760  0.47784517  0.99611830     0.11700
H2700       H  0.51836073  0.51279801  0.01690288     0.13600
H2701       H  0.55119622  0.51888402  0.99174371     0.10100
H2702       H  0.57129644  0.51939430  0.94726817     0.12200
H2703       H  0.52631711  0.48636110  0.90632632     0.08800
H2704       H  0.50622740  0.48607516  0.95043446     0.11600
C2705       C  0.23621147  0.50591414  0.99269789    -0.03000
C2706       C  0.23524864  0.51717333  0.01659031    -0.05600
C2707       C  0.25167155  0.51837832  0.03593003    -0.20700
C2708       C  0.26947991  0.50836794  0.03201305     0.25000
C2709       C  0.27062631  0.49737220  0.00769084    -0.18300
C2710       C  0.25413809  0.49608653  0.98844448    -0.08200
C2711       C  0.28658396  0.51011497  0.05331466    -0.18500
C2712       C  0.30158765  0.49818654  0.05641136    -0.23300
C2713       C  0.31925569  0.49963118  0.07671656     0.27100
C2714       C  0.33628519  0.48893592  0.07158895    -0.20100
C2715       C  0.35317991  0.48916220  0.08997254    -0.09700
C2716       C  0.35358178  0.50001851  0.11438902    -0.10300
C2717       C  0.33653280  0.51079649  0.11975041    -0.03200
C2718       C  0.31951237  0.51063794  0.10107609    -0.18300
H2719       H  0.22166317  0.52491965  0.02061149     0.10800
H2720       H  0.25035706  0.52706280  0.05423913     0.10800
H2721       H  0.28425793  0.48988267  0.00302330     0.10500
H2722       H  0.25547919  0.48741898  0.97012893     0.11600
H2723       H  0.28657821  0.52157645  0.06694529     0.11700
H2724       H  0.30130998  0.48663680  0.04302510     0.13600
H2725       H  0.33656601  0.48029739  0.05312652     0.10100
H2726       H  0.36593534  0.48063688  0.08503029     0.12200
H2727       H  0.33631344  0.51928327  0.13838299     0.08800
H2728       H  0.30654605  0.51885743  0.10616635     0.11600
C2729       C  0.60293072  0.49830710  0.36513651    -0.03000
C2730       C  0.60143194  0.51090990  0.34332276    -0.05600
C2731       C  0.58435589  0.51150825  0.32520274    -0.20700
C2732       C  0.56841964  0.49939613  0.32800539     0.25000
C2733       C  0.56971850  0.48683693  0.35002105    -0.18300
C2734       C  0.58679240  0.48635267  0.36845658    -0.08200
C2735       C  0.55060971  0.50081811  0.30801348    -0.18500
C2736       C  0.53791385  0.48756892  0.30138562    -0.23300
C2737       C  0.52040036  0.48912793  0.28078409     0.27100
C2738       C  0.50467591  0.47667957  0.28180514    -0.20100
C2739       C  0.48778037  0.47775800  0.26326375    -0.09700
C2740       C  0.48626165  0.49127043  0.24299017    -0.10300
C2741       C  0.50226899  0.50346181  0.24137734    -0.03200
C2742       C  0.51915174  0.50239699  0.25993935    -0.18300
H2743       H  0.61345169  0.52044044  0.34029319     0.10800
H2744       H  0.58369667  0.52142458  0.30867435     0.10800
H2745       H  0.55750071  0.47757306  0.35344071     0.10500
H2746       H  0.58742947  0.47655005  0.38515343     0.11600
H2747       H  0.54831839  0.51336500  0.29794673     0.11700
H2748       H  0.54019402  0.47504153  0.31157653     0.13600
H2749       H  0.50531550  0.46618609  0.29731386     0.10100
H2750       H  0.47582854  0.46805018  0.26498211     0.12200
H2751       H  0.50172518  0.51393267  0.22583135     0.08800
H2752       H  0.53120751  0.51190612  0.25749528     0.11600
C2753       C  0.42531228  0.56350708  0.15990478    -0.03000
C2754       C  0.44430231  0.57114192  0.15311071    -0.05600
C2755       C  0.44535590  0.58841922  0.14397947    -0.20700
C2756       C  0.42748823  0.59845620  0.14106951     0.25000
C2757       C  0.40847664  0.59093607  0.14827496    -0.18300
C2758       C  0.40742323  0.57365542  0.15754891    -0.08200
C2759       C  0.42950153  0.61682377  0.13146680    -0.18500
C2760       C  0.41427948  0.62584530  0.11864255    -0.23300
C2761       C  0.41607272  0.64432002  0.10925336     0.27100
C2762       C  0.39802355  0.65352937  0.10286672    -0.20100
C2763       C  0.39877797  0.67099144  0.09462671    -0.09700
C2764       C  0.41766575  0.67970614  0.09252203    -0.10300
C2765       C  0.43579111  0.67040567  0.09818289    -0.03200
C2766       C  0.43504878  0.65291423  0.10628547    -0.18300
H2767       H  0.45839351  0.56373409  0.15463878     0.10800
H2768       H  0.46021255  0.59391689  0.13882949     0.10800
H2769       H  0.39440838  0.59836794  0.14724018     0.10500
H2770       H  0.39254317  0.56821271  0.16267007     0.11600
H2771       H  0.44430709  0.62286892  0.13489438     0.11700
H2772       H  0.39960142  0.61955759  0.11506492     0.13600
H2773       H  0.38320094  0.64725816  0.10469452     0.10100
H2774       H  0.38450577  0.67774698  0.09044603     0.12200
H2775       H  0.45061820  0.67667107  0.09648356     0.08800
H2776       H  0.44942958  0.64630157  0.10995911     0.11600
C2777       C  0.35518749  0.81991022  0.67013594    -0.03000
C2778       C  0.34492449  0.83135511  0.68887292    -0.05600
C2779       C  0.34976410  0.84906730  0.68906890    -0.20700
C2780       C  0.36540712  0.85551680  0.67128736     0.25000
C2781       C  0.37564697  0.84411837  0.65248541    -0.18300
C2782       C  0.37042130  0.82651025  0.65168684    -0.08200
C2783       C  0.37053768  0.87423716  0.67206263    -0.18500
C2784       C  0.39006729  0.87985848  0.67262607    -0.23300
C2785       C  0.39530854  0.89856040  0.67353456     0.27100
C2786       C  0.41112408  0.90436757  0.69164164    -0.20100
C2787       C  0.41646812  0.92198349  0.69245161    -0.09700
C2788       C  0.40656535  0.93395841  0.67434871    -0.10300
C2789       C  0.39097325  0.92804194  0.65585512    -0.03200
C2790       C  0.38523430  0.91054831  0.65568126    -0.18300
H2791       H  0.33304212  0.82662929  0.70318562     0.10800
H2792       H  0.34158092  0.85769479  0.70353409     0.10800
H2793       H  0.38751514  0.84888055  0.63818163     0.10500
H2794       H  0.37858312  0.81798684  0.63703117     0.11600
H2795       H  0.35804597  0.88353835  0.67388785     0.11700
H2796       H  0.40251109  0.87048380  0.67394382     0.13600
H2797       H  0.41916160  0.89528389  0.70542377     0.10100
H2798       H  0.42856432  0.92619599  0.70683985     0.12200
H2799       H  0.38302491  0.93700582  0.64176085     0.08800
H2800       H  0.37321416  0.90632076  0.64117661     0.11600
C2801       C  0.29680098  0.75664350  0.58126191    -0.03000
C2802       C  0.30223506  0.76702375  0.55756218    -0.05600
C2803       C  0.28990517  0.76734021  0.53293535    -0.20700
C2804       C  0.27207753  0.75717197  0.53139864     0.25000
C2805       C  0.26622270  0.74732635  0.55553013    -0.18300
C2806       C  0.27849382  0.74702716  0.58011756    -0.08200
C2807       C  0.25998525  0.75717258  0.50437841    -0.18500
C2808       C  0.24800227  0.74378126  0.49625477    -0.23300
C2809       C  0.23629351  0.74359093  0.46892334     0.27100
C2810       C  0.21843225  0.73348068  0.46710872    -0.20100
C2811       C  0.20662133  0.73344766  0.44197895    -0.09700
C2812       C  0.21261583  0.74342920  0.41809000    -0.10300
C2813       C  0.23100457  0.75293232  0.41952516    -0.03200
C2814       C  0.24274638  0.75299047  0.44461370    -0.18300
H2815       H  0.31612741  0.77472709  0.55787817     0.10800
H2816       H  0.29456116  0.77523962  0.51475885     0.10800
H2817       H  0.25214458  0.73990620  0.55567988     0.10500
H2818       H  0.27368353  0.73909846  0.59816201     0.11600
H2819       H  0.26156510  0.76840847  0.49045085     0.11700
H2820       H  0.24638024  0.73254403  0.51015454     0.13600
H2821       H  0.21334398  0.72590843  0.48543851     0.10100
H2822       H  0.19261311  0.72590109  0.44148831     0.12200
H2823       H  0.23623531  0.76056997  0.40136141     0.08800
H2824       H  0.25688893  0.76032725  0.44473463     0.11600
C2825       C  0.52249242  0.74328175  0.48350482    -0.03000
C2826       C  0.50531604  0.75315499  0.47535099    -0.05600
C2827       C  0.48769326  0.75345408  0.49252547    -0.20700
C2828       C  0.48688078  0.74413171  0.51848868     0.25000
C2829       C  0.50389181  0.73390233  0.52638285    -0.18300
C2830       C  0.52149013  0.73347325  0.50902356    -0.08200
C2831       C  0.46790901  0.74539676  0.53627423    -0.18500
C2832       C  0.46707502  0.74209010  0.56482032    -0.23300
C2833       C  0.44805030  0.74433550  0.58230185     0.27100
C2834       C  0.44581678  0.73496634  0.60808793    -0.20100
C2835       C  0.42802725  0.73666474  0.62488952    -0.09700
C2836       C  0.41212631  0.74788063  0.61630934    -0.10300
C2837       C  0.41465058  0.75760703  0.59091456    -0.03200
C2838       C  0.43239613  0.75594794  0.57422478    -0.18300
H2839       H  0.50553214  0.76078740  0.45575658     0.10800
H2840       H  0.47476140  0.76129525  0.48575520     0.10800
H2841       H  0.50369507  0.72611263  0.54575210     0.10500
H2842       H  0.53446056  0.72571413  0.51588181     0.11600
H2843       H  0.45417828  0.74975235  0.52525097     0.11700
H2844       H  0.48064799  0.73751411  0.57597187     0.13600
H2845       H  0.45774932  0.72611604  0.61503891     0.10100
H2846       H  0.42662241  0.72902844  0.64437728     0.12200
H2847       H  0.40288500  0.76658606  0.58387428     0.08800
H2848       H  0.43382277  0.76400355  0.55525597     0.11600
C2849       C  0.15987656  0.74760536  0.86105439    -0.03000
C2850       C  0.16105978  0.73519542  0.83882229    -0.05600
C2851       C  0.17772302  0.73492166  0.81984590    -0.20700
C2852       C  0.19358067  0.74715876  0.82218924     0.25000
C2853       C  0.19250667  0.75960659  0.84448618    -0.18300
C2854       C  0.17583987  0.75978609  0.86372190    -0.08200
C2855       C  0.21108895  0.74594552  0.80147360    -0.18500
C2856       C  0.22409361  0.75909665  0.79547001    -0.23300
C2857       C  0.24144652  0.75785325  0.77441739     0.27100
C2858       C  0.25680662  0.77062896  0.77525057    -0.20100
C2859       C  0.27341093  0.77011011  0.75611465    -0.09700
C2860       C  0.27509284  0.75679845  0.73543684    -0.10300
C2861       C  0.25957837  0.74413985  0.73421035    -0.03200
C2862       C  0.24291889  0.74467495  0.75334487    -0.18300
H2863       H  0.14912829  0.72554647  0.83614446     0.10800
H2864       H  0.17815464  0.72510931  0.80308627     0.10800
H2865       H  0.20460757  0.76901382  0.84758720     0.10500
H2866       H  0.17541634  0.76950305  0.88061250     0.11600
H2867       H  0.21294193  0.73361947  0.79046941     0.11700
H2868       H  0.22216670  0.77141703  0.80651383     0.13600
H2869       H  0.25607926  0.78100795  0.79101570     0.10100
H2870       H  0.28506386  0.78007953  0.75777101     0.12200
H2871       H  0.26031787  0.73375211  0.71847698     0.08800
H2872       H  0.23122712  0.73483062  0.75114733     0.11600
C2873       C  0.39549496  0.73843402  0.97382877    -0.03000
C2874       C  0.41256861  0.73870571  0.95532158    -0.05600
C2875       C  0.41020343  0.73595064  0.92583821    -0.20700
C2876       C  0.39066228  0.73339391  0.91414343     0.25000
C2877       C  0.37355214  0.73258540  0.93268861    -0.18300
C2878       C  0.37600756  0.73488398  0.96246582    -0.08200
C2879       C  0.38862620  0.73258824  0.88242860    -0.18500
C2880       C  0.37346777  0.74100711  0.86873494    -0.23300
C2881       C  0.37292602  0.74344297  0.83707538     0.27100
C2882       C  0.36286798  0.75813054  0.82630466    -0.20100
C2883       C  0.36128319  0.76083179  0.79672863    -0.09700
C2884       C  0.36947691  0.74873975  0.77707048    -0.10300
C2885       C  0.37998136  0.73415926  0.78779605    -0.03200
C2886       C  0.38171080  0.73152115  0.81758088    -0.18300
H2887       H  0.42782118  0.74110039  0.96372046     0.10800
H2888       H  0.42357775  0.73650641  0.91197802     0.10800
H2889       H  0.35833062  0.73030257  0.92414976     0.10500
H2890       H  0.36269352  0.73444267  0.97642997     0.11600
H2891       H  0.40131300  0.72716612  0.87017309     0.11700
H2892       H  0.36206868  0.74793489  0.88145232     0.13600
H2893       H  0.35605271  0.76752552  0.84086501     0.10100
H2894       H  0.35303366  0.77219441  0.78930542     0.12200
H2895       H  0.38621600  0.72449703  0.77323015     0.08800
H2896       H  0.38927817  0.71988588  0.82519457     0.11600
C2897       C  0.39873754  0.31731297  0.58068074    -0.03000
C2898       C  0.38356638  0.32355583  0.59960777    -0.05600
C2899       C  0.37602647  0.34047347  0.59690690    -0.20700
C2900       C  0.38398002  0.35166010  0.57589720     0.25000
C2901       C  0.39942083  0.34559041  0.55724500    -0.18300
C2902       C  0.40654385  0.32845975  0.55936684    -0.08200
C2903       C  0.37564607  0.36949456  0.57354109    -0.18500
C2904       C  0.38792093  0.38339995  0.57110401    -0.23300
C2905       C  0.37966820  0.40126492  0.57250111     0.27100
C2906       C  0.38753473  0.41281508  0.59302164    -0.20100
C2907       C  0.38000182  0.42977237  0.59486692    -0.09700
C2908       C  0.36493882  0.43568749  0.57553846    -0.10300
C2909       C  0.35725839  0.42416003  0.55464298    -0.03200
C2910       C  0.36435732  0.40697113  0.55342333    -0.18300
H2911       H  0.37711106  0.31518491  0.61602570     0.10800
H2912       H  0.36409108  0.34490521  0.61143302     0.10800
H2913       H  0.40561220  0.35396882  0.54064736     0.10500
H2914       H  0.41817100  0.32393862  0.54443970     0.11600
H2915       H  0.35926914  0.37140204  0.57672011     0.11700
H2916       H  0.40447350  0.38168400  0.57129829     0.13600
H2917       H  0.39936343  0.40862734  0.60786387     0.10100
H2918       H  0.38633958  0.43840991  0.61101230     0.12200
H2919       H  0.34569583  0.42840401  0.53944914     0.08800
H2920       H  0.35822758  0.39823355  0.53726889     0.11600
C2921       C  0.30004270  0.49513663  0.67030582    -0.03000
C2922       C  0.30646506  0.48487834  0.69368575    -0.05600
C2923       C  0.29509840  0.48454296  0.71923307    -0.20700
C2924       C  0.27724563  0.49458608  0.72211418     0.25000
C2925       C  0.27040983  0.50438912  0.69842242    -0.18300
C2926       C  0.28171956  0.50467641  0.67283044    -0.08200
C2927       C  0.26596510  0.49425027  0.74988973    -0.18500
C2928       C  0.25438444  0.50760147  0.75936815    -0.23300
C2929       C  0.24268603  0.50722826  0.78684056     0.27100
C2930       C  0.22551196  0.51809932  0.78979970    -0.20100
C2931       C  0.21343203  0.51753520  0.81468933    -0.09700
C2932       C  0.21843102  0.50618298  0.83732453    -0.10300
C2933       C  0.23616918  0.49586601  0.83489310    -0.03200
C2934       C  0.24820159  0.49639918  0.80998319    -0.18300
H2935       H  0.32045247  0.47731137  0.69244442     0.10800
H2936       H  0.30051935  0.47669896  0.73705406     0.10800
H2937       H  0.25628497  0.51175154  0.69943667     0.10500
H2938       H  0.27621565  0.51256963  0.65513834     0.11600
H2939       H  0.26765274  0.48267585  0.76299092     0.11700
H2940       H  0.25284944  0.51916312  0.74616965     0.13600
H2941       H  0.22111583  0.52675550  0.77246815     0.10100
H2942       H  0.19999298  0.52578362  0.81597192     0.12200
H2943       H  0.24062983  0.48714645  0.85208858     0.08800
H2944       H  0.26179156  0.48835081  0.80909917     0.11600
C2945       C  0.41267290  0.50618935  0.64430482    -0.03000
C2946       C  0.41104510  0.49862802  0.67179224    -0.05600
C2947       C  0.42758041  0.49862314  0.69081433    -0.20700
C2948       C  0.44641631  0.50611817  0.68318019     0.25000
C2949       C  0.44821324  0.51381934  0.65565725    -0.18300
C2950       C  0.43144709  0.51389810  0.63646965    -0.08200
C2951       C  0.46340891  0.50506107  0.70479835    -0.18500
C2952       C  0.48226663  0.51209690  0.70201198    -0.23300
C2953       C  0.49864769  0.51027934  0.72443849     0.27100
C2954       C  0.51490363  0.52223984  0.72480744    -0.20100
C2955       C  0.53084092  0.52073996  0.74491667    -0.09700
C2956       C  0.53103364  0.50712847  0.76516075    -0.10300
C2957       C  0.51476081  0.49515620  0.76486852    -0.03200
C2958       C  0.49884199  0.49663401  0.74471892    -0.18300
H2959       H  0.39687475  0.49262602  0.67879746     0.10800
H2960       H  0.42559843  0.49258864  0.71171828     0.10800
H2961       H  0.46242993  0.51965630  0.64864722     0.10500
H2962       H  0.43325264  0.51978545  0.61543551     0.11600
H2963       H  0.45981654  0.49823923  0.72459634     0.11700
H2964       H  0.48584625  0.51987411  0.68322161     0.13600
H2965       H  0.51531489  0.53279247  0.70939355     0.10100
H2966       H  0.54316886  0.53015344  0.74432554     0.12200
H2967       H  0.51452476  0.48437894  0.77984398     0.08800
H2968       H  0.48709865  0.48673361  0.74472450     0.11600
C2969       C  0.28157327  0.49572200  0.51166703    -0.03000
C2970       C  0.28202143  0.48364528  0.48886038    -0.05600
C2971       C  0.26572428  0.48254207  0.46925282    -0.20700
C2972       C  0.24859869  0.49353748  0.47169211     0.25000
C2973       C  0.24796937  0.50543059  0.49483993    -0.18300
C2974       C  0.26427655  0.50653719  0.51445378    -0.08200
C2975       C  0.23148600  0.49174553  0.45038366    -0.18500
C2976       C  0.21749790  0.50431995  0.44534704    -0.23300
C2977       C  0.19947412  0.50255126  0.42569372     0.27100
C2978       C  0.18281476  0.51379553  0.43004554    -0.20100
C2979       C  0.16535119  0.51279706  0.41273772    -0.09700
C2980       C  0.16404780  0.50062640  0.39016552    -0.10300
C2981       C  0.18090153  0.48955599  0.38522261    -0.03200
C2982       C  0.19843771  0.49045481  0.40286154    -0.18300
H2983       H  0.29505587  0.47508128  0.48599720     0.10800
H2984       H  0.26659555  0.47313096  0.45190637     0.10800
H2985       H  0.23482247  0.51373837  0.49832483     0.10500
H2986       H  0.26330799  0.51589970  0.53184879     0.11600
H2987       H  0.23048858  0.47959256  0.43859500     0.11700
H2988       H  0.21873627  0.51652077  0.45692542     0.13600
H2989       H  0.18318445  0.52332909  0.44724500     0.10100
H2990       H  0.15281905  0.52166741  0.41711059     0.12200
H2991       H  0.18047560  0.48012508  0.36789329     0.08800
H2992       H  0.21114794  0.48184227  0.39828471     0.11600
C2993       C  0.38010552  0.51143478  0.47950940    -0.03000
C2994       C  0.38181130  0.52826814  0.46804543    -0.05600
C2995       C  0.38395945  0.53066269  0.43819200    -0.20700
C2996       C  0.38433195  0.51628258  0.41951006     0.25000
C2997       C  0.38427726  0.49948575  0.43139742    -0.18300
C2998       C  0.38200047  0.49711106  0.46097316    -0.08200
C2999       C  0.38475313  0.51881835  0.38773664    -0.18500
C3000       C  0.37562153  0.50739729  0.36982319    -0.23300
C3001       C  0.37827522  0.50720504  0.33809674     0.27100
C3002       C  0.37760507  0.49104818  0.32415152    -0.20100
C3003       C  0.38172460  0.48971960  0.29476809    -0.09700
C3004       C  0.38601459  0.50459518  0.27843940    -0.10300
C3005       C  0.38551335  0.52095828  0.29189481    -0.03200
C3006       C  0.38185046  0.52226286  0.32165663    -0.18300
H3007       H  0.38026870  0.53953149  0.48189373     0.10800
H3008       H  0.38439614  0.54372857  0.42958158     0.10800
H3009       H  0.38563318  0.48809228  0.41783701     0.10500
H3010       H  0.38102163  0.48399307  0.46929646     0.11600
H3011       H  0.39294490  0.52994313  0.37916299     0.11700
H3012       H  0.36712518  0.49659698  0.37898255     0.13600
H3013       H  0.37474907  0.47928176  0.33629417     0.10100
H3014       H  0.38207864  0.47696208  0.28487687     0.12200
H3015       H  0.38897345  0.53258672  0.27972179     0.08800
H3016       H  0.38202864  0.53495004  0.33172696    -0.01200
C3017       C  0.33879616  0.56882587  0.59524877    -0.03000
C3018       C  0.31933970  0.57656707  0.59812180    -0.05600
C3019       C  0.31747200  0.59404343  0.60599344    -0.20700
C3020       C  0.33494556  0.60411632  0.61164547     0.25000
C3021       C  0.35444560  0.59650947  0.60820165    -0.18300
C3022       C  0.35632922  0.57906548  0.60008548    -0.08200
C3023       C  0.33224000  0.62258829  0.62027679    -0.18500
C3024       C  0.34582629  0.63120232  0.63689151    -0.23300
C3025       C  0.34372123  0.64978597  0.64548263     0.27100
C3026       C  0.36111431  0.65841355  0.65611955    -0.20100
C3027       C  0.36021714  0.67597555  0.66369806    -0.09700
C3028       C  0.34180797  0.68537055  0.66099755    -0.10300
C3029       C  0.32420995  0.67664161  0.65114611    -0.03200
C3030       C  0.32510604  0.65904770  0.64356181    -0.18300
H3031       H  0.30551207  0.56909862  0.59444300     0.10800
H3032       H  0.30228817  0.59964637  0.60815402     0.10800
H3033       H  0.36828846  0.60401337  0.61138482     0.10500
H3034       H  0.37155056  0.57355313  0.59792609     0.11600
H3035       H  0.31836392  0.62899147  0.61302084     0.11700
H3036       H  0.35945625  0.62443710  0.64431078     0.13600
H3037       H  0.37560516  0.65160803  0.65811333     0.10100
H3038       H  0.37407399  0.68224721  0.67126851     0.12200
H3039       H  0.30974066  0.68344847  0.64899756     0.08800
H3040       H  0.31113105  0.65287255  0.63640065     0.11600
loop_ 
_geom_bond_atom_site_label_1 
_geom_bond_atom_site_label_2 
_geom_bond_distance 
_geom_bond_site_symmetry_2 
_ccdc_geom_bond_type 
O1           C17   1.276       .  A
O1           Zn7   2.035       .  S
C2           O18   1.276       .  A
C2           O15   1.277       .  A
C2         C2969   1.492       .  S
O3           C16   1.278       .  A
O3          Cd10   2.094       .  S
O4           C22   1.277       .  A
O4          Cd13   2.074       .  S
O5           C19   1.275       .  A
O5           Cd9   2.066       .  S
O6           C17   1.274       .  A
O6           Cd9   2.064       .  S
Zn7          O18   2.031       .  S
Zn7          O20   1.995       .  S
Zn7          O12   1.940       .  S
O8           C19   1.276       .  A
O8          Cd13   2.073       .  S
Cd9          O11   2.055       .  S
Cd9          O12   1.984       .  S
Cd10         O14   2.116       .  S
Cd10         O23   2.080       .  S
Cd10         O12   2.018       .  S
O11          C21   1.274       .  A
O12         Cd13   2.001       .  S
Cd13         O15   2.089       .  S
O14          C21   1.280       .  A
C16          O20   1.274       .  A
C16        C2993   1.477       .  S
C17        C2908   1.480       .  S
C19        C2921   1.482       .  S
C21        C2945   1.492       .  S
C22          O23   1.277       .  A
C22        C3017   1.485       .  S
O24          C40   1.276       .  A
O24         Zn30   2.026       .  S
C25          O41   1.275       .  A
C25          O38   1.277       .  A
C25        C2860   1.489       .  S
O26          C39   1.278       .  A
O26         Cd33   2.085       .  S
O27          C45   1.276       .  A
O27         Cd36   2.076       .  S
O28          C42   1.277       .  A
O28         Cd32   2.072       .  S
O29          C40   1.274       .  A
O29         Cd32   2.069       .  S
Zn30         O41   2.022       .  S
Zn30         O43   1.990       .  S
Zn30         O35   1.930       .  S
O31          C42   1.275       .  A
O31         Cd36   2.059       .  S
Cd32         O34   2.066       .  S
Cd32         O35   1.988       .  S
Cd33         O37   2.091       .  S
Cd33         O46   2.072       .  S
Cd33         O35   2.003       .  S
O34          C44   1.276       .  A
O35         Cd36   1.992       .  S
Cd36         O38   2.085       .  S
O37          C44   1.279       .  A
C39          O43   1.273       .  A
C39        C2884   1.481       .  S
C40        C2777   1.479       .  S
C42        C2801   1.479       .  S
C44        C2836   1.486       .  S
C45          O46   1.276       .  A
C45        C3028   1.485       .  S
O47          C63   1.275       .  A
O47         Zn53   2.027       .  S
C48          O64   1.276       .  A
C48          O61   1.277       .  A
C48        C2740   1.488       .  S
O49          C62   1.279       .  A
O49         Cd56   2.097       .  S
O50          C68   1.276       .  A
O50         Cd59   2.073       .  S
O51          C65   1.276       .  A
O51         Cd55   2.071       .  S
O52          C63   1.274       .  A
O52         Cd55   2.065       .  S
Zn53         O64   2.028       .  S
Zn53         O66   1.997       .  S
Zn53         O58   1.937       .  S
O54          C65   1.275       .  A
O54         Cd59   2.063       .  S
Cd55         O57   2.053       .  S
Cd55         O58   1.985       .  S
Cd56         O60   2.110       .  S
Cd56         O69   2.080       .  S
Cd56         O58   2.014       .  S
O57          C67   1.274       .  A
O58         Cd59   1.993       .  S
Cd59         O61   2.079       .  S
O60          C67   1.280       .  A
C62          O66   1.274       .  A
C62        C3004   1.474       .  S
C63        C2668   1.478       .  S
C65        C2681   1.481       .  S
C67        C2716   1.490       .  S
C68          O69   1.277       .  A
C68        C2753   1.486       .  S
O70          C86   1.279       .  A
O70         Zn76   2.049       .  S
C71          O87   1.278       .  A
C71          O84   1.276       .  A
C71        C2620   1.488       .  S
O72          C85   1.278       .  A
O72         Cd79   2.088       .  S
O73          C91   1.276       .  A
O73         Cd82   2.071       .  S
O74          C88   1.277       .  A
O74         Cd78   2.077       .  S
O75          C86   1.275       .  A
O75         Cd78   2.064       .  S
Zn76         O87   2.040       .  S
Zn76         O89   1.996       .  S
Zn76         O81   1.934       .  S
O77          C88   1.274       .  A
O77         Cd82   2.055       .  S
Cd78         O80   2.073       .  S
Cd78         O81   1.979       .  S
Cd79         O83   2.097       .  S
Cd79         O92   2.080       .  S
Cd79         O81   2.002       .  S
O80          C90   1.277       .  A
O81         Cd82   1.981       .  S
Cd82         O84   2.071       .  S
O83          C90   1.280       .  A
C85          O89   1.274       .  A
C85        C2873   1.472   1_554  S
C86        C2561   1.482       .  S
C88        C2596   1.479       .  S
C90        C2644   1.490       .  S
C91          O92   1.277       .  A
C91        C2764   1.485       .  S
O93         C109   1.277       .  A
O93         Zn99   2.037       .  S
C94         O110   1.277       .  A
C94         O107   1.274       .  A
C94        C2452   1.479       .  S
O95         C108   1.279       .  A
O95        Cd102   2.092       .  S
O96         C114   1.275       .  A
O96        Cd105   2.062       .  S
O97         C111   1.276       .  A
O97        Cd101   2.069       .  S
O98         C109   1.276       .  A
O98        Cd101   2.080       .  S
Zn99        O110   2.043       .  S
Zn99        O112   1.991       .  S
Zn99        O104   1.942       .  S
O100        C111   1.276       .  A
O100       Cd105   2.072       .  S
Cd101       O103   2.069       .  S
Cd101       O104   1.990       .  S
Cd102       O106   2.084       .  S
Cd102       O115   2.106       .  S
Cd102       O104   2.017       .  S
O103        C113   1.276       .  A
O104       Cd105   1.983       .  S
Cd105       O107   2.059       .  S
O106        C113   1.277       .  A
C108        O112   1.273       .  A
C108       C2524   1.479       .  S
C109       C2489   1.490       .  S
C111       C2476   1.482       .  S
C113       C2537   1.484       .  S
C114        O115   1.280       .  A
C114       C2980   1.491       .  S
O116        C132   1.276       .  A
O116       Zn122   2.031       .  S
C117        O133   1.276       .  A
C117        O130   1.275       .  A
C117       C2321   1.480       .  S
O118        C131   1.280       .  A
O118       Cd125   2.101       .  S
O119        C137   1.275       .  A
O119       Cd128   2.060       .  S
O120        C134   1.274       .  A
O120       Cd124   2.055       .  S
O121        C132   1.277       .  A
O121       Cd124   2.080       .  S
Zn122       O133   2.035       .  S
Zn122       O135   1.987       .  S
Zn122       O127   1.931       .  S
O123        C134   1.277       .  A
O123       Cd128   2.075       .  S
Cd124       O126   2.072       .  S
Cd124       O127   1.987       .  S
Cd125       O129   2.079       .  S
Cd125       O138   2.103       .  S
Cd125       O127   2.011       .  S
O126        C136   1.276       .  A
O127       Cd128   1.982       .  S
Cd128       O130   2.065       .  S
O129        C136   1.277       .  A
C131        O135   1.273       .  A
C131       C2417   1.480       .  S
C132       C2380   1.489       .  S
C134       C2345   1.479       .  S
C136       C2548   1.485       .  S
C137        O138   1.280       .  A
C137       C2393   1.486       .  S
O139        C155   1.274       .  A
O139       Zn145   2.017       .  S
C140        O156   1.274       .  A
C140        O153   1.273       .  A
C140       C2249   1.473       .  S
O141        C154   1.279       .  A
O141       Cd148   2.098       .  S
O142        C160   1.274       .  A
O142       Cd151   2.056       .  S
O143        C157   1.276       .  A
O143       Cd147   2.067       .  S
O144        C155   1.277       .  A
O144       Cd147   2.087       .  S
Zn145       O156   2.021       .  S
Zn145       O158   1.980       .  S
Zn145       O150   1.930       .  S
O146        C157   1.277       .  A
O146       Cd151   2.072       .  S
Cd147       O149   2.074       .  S
Cd147       O150   1.996       .  S
Cd148       O152   2.079       .  S
Cd148       O161   2.111       .  S
Cd148       O150   2.014       .  S
O149        C159   1.277       .  A
O150       Cd151   1.984       .  S
Cd151       O153   2.063       .  S
O152        C159   1.277       .  A
C154        O158   1.272       .  A
C154       C2513   1.481   1_556  S
C155       C2705   1.488       .  S
C157       C2932   1.481       .  S
C159       C2308   1.485       .  S
C160        O161   1.281       .  A
C160       C2273   1.489       .  S
O162        C178   1.276       .  A
O162       Zn168   2.029       .  S
C163        O179   1.277       .  A
C163        O176   1.276       .  A
C163       C2164   1.482       .  S
O164        C177   1.279       .  A
O164       Cd171   2.094       .  S
O165        C183   1.276       .  A
O165       Cd174   2.071       .  S
O166        C180   1.275       .  A
O166       Cd170   2.062       .  S
O167        C178   1.277       .  A
O167       Cd170   2.078       .  S
Zn168       O179   2.034       .  S
Zn168       O181   1.994       .  S
Zn168       O173   1.931       .  S
O169        C180   1.277       .  A
O169       Cd174   2.075       .  S
Cd170       O172   2.075       .  S
Cd170       O173   1.991       .  S
Cd171       O175   2.074       .  S
Cd171       O184   2.095       .  S
Cd171       O173   2.002       .  S
O172        C182   1.276       .  A
O173       Cd174   1.985       .  S
Cd174       O176   2.071       .  S
O175        C182   1.276       .  A
C177        O181   1.273       .  A
C177       C2428   1.483       .  S
C178       C2236   1.488       .  S
C180       C2177   1.481       .  S
C182       C2297   1.484       .  S
C183        O184   1.280       .  A
C183       C2212   1.489       .  S
O185        C201   1.275       .  A
O185       Zn191   2.023       .  S
C186        O202   1.275       .  A
C186        O199   1.277       .  A
C186       C2404   1.487       .  S
O187        C200   1.279       .  A
O187       Cd194   2.099       .  S
O188        C206   1.276       .  A
O188       Cd197   2.066       .  S
O189        C203   1.277       .  A
O189       Cd193   2.077       .  S
O190        C201   1.275       .  A
O190       Cd193   2.071       .  S
Zn191       O202   2.019       .  S
Zn191       O204   1.986       .  S
Zn191       O196   1.927       .  S
O192        C203   1.275       .  A
O192       Cd197   2.061       .  S
Cd193       O195   2.059       .  S
Cd193       O196   1.986       .  S
Cd194       O198   2.107       .  S
Cd194       O207   2.082       .  S
Cd194       O196   2.012       .  S
O195        C205   1.275       .  A
O196       Cd197   1.990       .  S
Cd197       O199   2.082       .  S
O198        C205   1.281       .  A
C200        O204   1.272       .  A
C200       C2116   1.480       .  S
C201       C2657   1.478       .  S
C203       C2188   1.482       .  S
C205       C2092   1.489       .  S
C206        O207   1.278       .  A
C206       C2140   1.484       .  S
O208        C224   1.277       .  A
O208       Zn214   2.039       .  S
C209        O225   1.277       .  A
C209        O222   1.276   1_565  A
C209       C2033   1.489       .  S
O210        C223   1.277       .  A
O210       Cd217   2.081       .  S
O211        C229   1.274       .  A
O211       Cd220   2.061       .  S
O212        C226   1.277       .  A
O212       Cd216   2.075       .  S
O213        C224   1.275       .  A
O213       Cd216   2.067       .  S
Zn214       O225   2.041       .  S
Zn214       O227   2.000       .  S
Zn214       O219   1.940       .  S
O215        C226   1.273   1_545  A
O215       Cd220   2.049       .  S
Cd216       O218   2.070       .  S
Cd216       O219   1.988       .  S
Cd217       O221   2.093       .  S
Cd217       O230   2.080       .  S
Cd217       O219   2.007   1_545  S
O218        C228   1.276   1_565  A
O219       Cd220   1.984   1_565  S
Cd220       O222   2.071       .  S
O221        C228   1.278       .  A
C223        O227   1.274   1_545  A
C223       C2057   1.479   1_554  S
C224       C2572   1.481       .  S
C226       C1996   1.478       .  S
C228       C2009   1.489       .  S
C229        O230   1.276       .  A
C229       C2129   1.482       .  S
O231        C247   1.275       .  A
O231       Zn237   2.028       .  S
C232        O248   1.275       .  A
C232        O245   1.279       .  A
C232       C1937   1.491       .  S
O233        C246   1.278       .  A
O233       Cd240   2.090       .  S
O234        C252   1.278       .  A
O234       Cd243   2.085       .  S
O235        C249   1.276       .  A
O235       Cd239   2.064       .  S
O236        C247   1.274       .  A
O236       Cd239   2.066       .  S
Zn237       O248   2.020       .  S
Zn237       O250   1.995       .  S
Zn237       O242   1.928       .  S
O238        C249   1.276       .  A
O238       Cd243   2.070       .  S
Cd239       O241   2.059       .  S
Cd239       O242   1.982       .  S
Cd240       O244   2.103       .  S
Cd240       O253   2.067       .  S
Cd240       O242   2.006       .  S
O241        C251   1.274       .  A
O242       Cd243   2.000       .  S
Cd243       O245   2.096       .  S
O244        C251   1.279       .  A
C246        O250   1.274       .  A
C246       C2105   1.482       .  S
C247       C2897   1.479       .  S
C249       C1924   1.479       .  S
C251       C2225   1.489       .  S
C252        O253   1.276       .  A
C252       C1972   1.485       .  S
O254        C270   1.277       .  A
O254       Zn260   2.036       .  S
C255        O271   1.276       .  A
C255        O268   1.274   1_565  A
C255       C1876   1.486       .  S
O256        C269   1.279       .  A
O256       Cd263   2.090       .  S
O257        C275   1.274       .  A
O257       Cd266   2.056       .  S
O258        C272   1.278       .  A
O258       Cd262   2.083       .  S
O259        C270   1.275       .  A
O259       Cd262   2.069       .  S
Zn260       O271   2.040       .  S
Zn260       O273   1.994       .  S
Zn260       O265   1.939   1_565  S
O261        C272   1.273   1_545  A
O261       Cd266   2.046       .  S
Cd262       O264   2.073       .  S
Cd262       O265   1.990   1_565  S
Cd263       O267   2.092       .  S
Cd263       O276   2.089       .  S
Cd263       O265   2.007       .  S
O264        C274   1.277   1_565  A
O265       Cd266   1.980       .  S
Cd266       O268   2.061       .  S
O267        C274   1.279       .  A
C269        O273   1.274   1_545  A
C269       C2068   1.479       .  S
C270       C2788   1.480       .  S
C272       C1841   1.479       .  S
C274       C1900   1.489       .  S
C275        O276   1.277       .  A
C275       C1961   1.483       .  S
O277        C293   1.277   1_545  A
O277       Zn283   2.049       .  S
C278        O294   1.275       .  A
C278        O291   1.276       .  A
C278       C1756   1.480       .  S
O279        C292   1.277       .  A
O279       Cd286   2.080       .  S
O280        C298   1.275   1_545  A
O280       Cd289   2.062       .  S
O281        C295   1.272       .  A
O281       Cd285   2.045       .  S
O282        C293   1.275       .  A
O282       Cd285   2.063       .  S
Zn283       O294   2.025       .  S
Zn283       O296   1.995       .  S
Zn283       O288   1.941   1_545  S
O284        C295   1.276   1_545  A
O284       Cd289   2.078       .  S
Cd285       O287   2.064       .  S
Cd285       O288   1.985       .  S
Cd286       O290   2.072       .  S
Cd286       O299   2.097       .  S
Cd286       O288   2.010       .  S
O287        C297   1.274       .  A
O288       Cd289   1.991   1_565  S
Cd289       O291   2.075       .  S
O290        C297   1.275       .  A
C292        O296   1.274   1_565  A
C292       C1804   1.466       .  S
C293       C2020   1.489       .  S
C295       C1852   1.477       .  S
C297       C1817   1.482       .  S
C298        O299   1.278       .  A
C298       C1769   1.488       .  S
O300        C316   1.275       .  A
O300       Zn306   2.028       .  S
C301        O317   1.276       .  A
C301        O314   1.275       .  A
C301       C1673   1.478       .  S
O302        C315   1.279       .  A
O302       Cd309   2.095       .  S
O303        C321   1.275       .  A
O303       Cd312   2.062       .  S
O304        C318   1.273       .  A
O304       Cd308   2.051       .  S
O305        C316   1.274       .  A
O305       Cd308   2.064       .  S
Zn306       O317   2.029       .  S
Zn306       O319   1.984       .  S
Zn306       O311   1.934       .  S
O307        C318   1.277       .  A
O307       Cd312   2.078       .  S
Cd308       O310   2.055       .  S
Cd308       O311   1.987       .  S
Cd309       O313   2.085       .  S
Cd309       O322   2.099       .  S
Cd309       O311   2.013       .  S
O310        C320   1.274       .  A
O311       Cd312   1.988       .  S
Cd312       O314   2.069       .  S
O313        C320   1.277       .  A
C315        O319   1.272       .  A
C315       C1721   1.480       .  S
C316       C2825   1.483       .  S
C318       C2585   1.479       .  S
C320       C1828   1.482       .  S
C321        O322   1.280       .  A
C321       C1697   1.489       .  S
O323        C339   1.277       .  A
O323       Zn329   2.042       .  S
C324        O340   1.276       .  A
C324        O337   1.275       .  A
C324       C1577   1.480       .  S
O325        C338   1.277   1_556  A
O325       Cd332   2.086       .  S
O326        C344   1.275   1_545  A
O326       Cd335   2.062       .  S
O327        C341   1.274   1_565  A
O327       Cd331   2.060       .  S
O328        C339   1.275   1_565  A
O328       Cd331   2.066       .  S
Zn329       O340   2.034       .  S
Zn329       O342   1.993       .  S
Zn329       O334   1.941   1_545  S
O330        C341   1.277       .  A
O330       Cd335   2.075       .  S
Cd331       O333   2.068       .  S
Cd331       O334   1.988       .  S
Cd332       O336   2.081       .  S
Cd332       O345   2.089       .  S
Cd332       O334   2.010       .  S
O333        C343   1.275       .  A
O334       Cd335   1.988   1_565  S
Cd335       O337   2.070       .  S
O336        C343   1.276       .  A
C338        O342   1.274   1_564  A
C338       C1793   1.477       .  S
C339       C1625   1.488       .  S
C341       C1601   1.480       .  S
C343       C1649   1.484       .  S
C344        O345   1.278       .  A
C344       C1865   1.485       .  S
O346        C362   1.276       .  A
O346       Zn352   2.034       .  S
C347        O363   1.276       .  A
C347        O360   1.277       .  A
C347       C1505   1.480       .  S
O348        C361   1.278       .  A
O348       Cd355   2.085       .  S
O349        C367   1.276       .  A
O349       Cd358   2.072       .  S
O350        C364   1.274       .  A
O350       Cd354   2.052       .  S
O351        C362   1.276       .  A
O351       Cd354   2.078       .  S
Zn352       O363   2.026       .  S
Zn352       O365   1.987       .  S
Zn352       O357   1.928       .  S
O353        C364   1.277       .  A
O353       Cd358   2.076       .  S
Cd354       O356   2.063       .  S
Cd354       O357   1.979       .  S
Cd355       O359   2.081       .  S
Cd355       O368   2.095       .  S
Cd355       O357   2.003       .  S
O356        C366   1.275       .  A
O357       Cd358   1.982       .  S
Cd358       O360   2.076       .  S
O359        C366   1.277       .  A
C361        O365   1.273       .  A
C361       C1732   1.477       .  S
C362       C1553   1.489       .  S
C364       C1529   1.476       .  S
C366       C1660   1.484       .  S
C367        O368   1.279       .  A
C367       C2609   1.488       .  S
O369        C385   1.277       .  A
O369       Zn375   2.041       .  S
C370        O386   1.278       .  A
C370        O383   1.274       .  A
C370       C1708   1.488       .  S
O371        C384   1.278       .  A
O371       Cd378   2.084       .  S
O372        C390   1.275       .  A
O372       Cd381   2.069       .  S
O373        C387   1.277       .  A
O373       Cd377   2.078       .  S
O374        C385   1.275       .  A
O374       Cd377   2.069       .  S
Zn375       O386   2.049       .  S
Zn375       O388   2.002       .  S
Zn375       O380   1.947       .  S
O376        C387   1.273       .  A
O376       Cd381   2.048       .  S
Cd377       O379   2.070       .  S
Cd377       O380   1.991       .  S
Cd378       O382   2.098       .  S
Cd378       O391   2.085       .  S
Cd378       O380   2.006       .  S
O379        C389   1.276       .  A
O380       Cd381   1.987       .  S
Cd381       O383   2.061       .  S
O382        C389   1.279       .  A
C384        O388   1.274       .  A
C384       C1468   1.471       .  S
C385       C1420   1.483       .  S
C387       C1540   1.477       .  S
C389       C1433   1.490       .  S
C390        O391   1.277       .  A
C390       C1492   1.487       .  S
O392        C408   1.275       .  A
O392       Zn398   2.029       .  S
C393        O409   1.275       .  A
C393        O406   1.275       .  A
C393       C1372   1.483       .  S
O394        C407   1.280       .  A
O394       Cd401   2.107       .  S
O395        C413   1.275       .  A
O395       Cd404   2.064       .  S
O396        C410   1.277       .  A
O396       Cd400   2.082       .  S
O397        C408   1.275       .  A
O397       Cd400   2.071       .  S
Zn398       O409   2.030       .  S
Zn398       O411   1.970       .  S
Zn398       O403   1.935       .  S
O399        C410   1.274       .  A
O399       Cd404   2.057       .  S
Cd400       O402   2.060       .  S
Cd400       O403   1.989       .  S
Cd401       O405   2.104       .  S
Cd401       O414   2.099       .  S
Cd401       O403   2.019       .  S
O402        C412   1.275       .  A
O403       Cd404   1.986       .  S
Cd404       O406   2.069       .  S
O405        C412   1.281       .  A
C407        O411   1.271       .  A
C407       C1396   1.482   1_554  S
C408       C1313   1.483       .  S
C410       C1337   1.481       .  S
C412       C2500   1.489       .  S
C413        O414   1.279       .  A
C413       C1481   1.487       .  S
O415        C431   1.276       .  A
O415       Zn421   2.038       .  S
C416        O432   1.277       .  A
C416        O429   1.278       .  A
C416       C2284   1.490       .  S
O417        C430   1.276       .  A
O417       Cd424   2.071       .  S
O418        C436   1.277       .  A
O418       Cd427   2.081       .  S
O419        C433   1.275       .  A
O419       Cd423   2.062       .  S
O420        C431   1.273       .  A
O420       Cd423   2.065       .  S
Zn421       O432   2.030       .  S
Zn421       O434   2.007       .  S
Zn421       O426   1.941       .  S
O422        C433   1.276       .  A
O422       Cd427   2.073       .  S
Cd423       O425   2.056       .  S
Cd423       O426   1.985       .  S
Cd424       O428   2.090       .  S
Cd424       O437   2.068       .  S
Cd424       O426   2.005       .  S
O425        C435   1.274       .  A
O426       Cd427   2.003       .  S
Cd427       O429   2.086       .  S
O428        C435   1.277       .  A
C430        O434   1.275       .  A
C430       C1385   1.470       .  S
C431       C1252   1.478       .  S
C433       C2465   1.481       .  S
C435       C1276   1.485       .  S
C436        O437   1.275       .  A
C436       C1289   1.485       .  S
O438        C454   1.276       .  A
O438       Zn444   2.034       .  S
C439        O455   1.276       .  A
C439        O452   1.276       .  A
C439       C1217   1.490       .  S
O440        C453   1.279       .  A
O440       Cd447   2.091       .  S
O441        C459   1.275       .  A
O441       Cd450   2.067       .  S
O442        C456   1.274       .  A
O442       Cd446   2.062       .  S
O443        C454   1.274       .  A
O443       Cd446   2.065       .  S
Zn444       O455   2.040       .  S
Zn444       O457   1.994       .  S
Zn444       O449   1.940       .  S
O445        C456   1.275       .  A
O445       Cd450   2.058       .  S
Cd446       O448   2.058       .  S
Cd446       O449   1.986       .  S
Cd447       O451   2.107       .  S
Cd447       O460   2.081       .  S
Cd447       O449   2.013       .  S
O448        C458   1.274       .  A
O449       Cd450   1.991       .  S
Cd450       O452   2.077       .  S
O451        C458   1.280       .  A
C453        O457   1.274       .  A
C453       C1457   1.477       .  S
C454       C1169   1.476       .  S
C456       C1193   1.476       .  S
C458       C1564   1.489       .  S
C459        O460   1.277       .  A
C459       C1300   1.485       .  S
O461        C477   1.275       .  A
O461       Zn467   2.026       .  S
C462        O478   1.274       .  A
C462        O475   1.275       .  A
C462       C1684   1.479       .  S
O463        C476   1.278       .  A
O463       Cd470   2.094       .  S
O464        C482   1.276       .  A
O464       Cd473   2.063       .  S
O465        C479   1.274       .  A
O465       Cd469   2.057       .  S
O466        C477   1.275       .  A
O466       Cd469   2.072       .  S
Zn467       O478   2.024       .  S
Zn467       O480   1.993       .  S
Zn467       O472   1.939       .  S
O468        C479   1.278       .  A
O468       Cd473   2.084       .  S
Cd469       O471   2.071       .  S
Cd469       O472   1.992       .  S
Cd470       O474   2.083       .  S
Cd470       O483   2.097       .  S
Cd470       O472   2.011       .  S
O471        C481   1.276       .  A
O472       Cd473   1.993       .  S
Cd473       O475   2.075       .  S
O474        C481   1.277       .  A
C476        O480   1.273       .  A
C476       C1121   1.473       .  S
C477       C1265   1.485       .  S
C479       C1348   1.482       .  S
C481       C1156   1.486       .  S
C482        O483   1.279       .  A
C482       C2729   1.486       .  S
O484        C500   1.275       .  A
O484       Zn490   2.027       .  S
C485        O501   1.276       .  A
C485        O498   1.273       .  A
C485       C1745   1.476       .  S
O486        C499   1.280       .  A
O486       Cd493   2.102       .  S
O487        C505   1.275       .  A
O487       Cd496   2.059       .  S
O488        C502   1.275       .  A
O488       Cd492   2.062       .  S
O489        C500   1.276       .  A
O489       Cd492   2.077       .  S
Zn490       O501   2.037       .  S
Zn490       O503   1.990       .  S
Zn490       O495   1.939       .  S
O491        C502   1.276       .  A
O491       Cd496   2.074       .  S
Cd492       O494   2.069       .  S
Cd492       O495   1.992       .  S
Cd493       O497   2.084       .  S
Cd493       O506   2.110       .  S
Cd493       O495   2.016       .  S
O494        C504   1.276       .  A
O495       Cd496   1.985       .  S
Cd496       O498   2.058       .  S
O497        C504   1.278       .  A
C499        O503   1.273       .  A
C499       C1097   1.483       .  S
C500       C1084   1.487       .  S
C502       C1060   1.481       .  S
C504       C1145   1.486       .  S
C505        O506   1.281       .  A
C505       C1948   1.488       .  S
O507        C523   1.276       .  A
O507       Zn513   2.025       .  S
C508        O524   1.275       .  A
C508        O521   1.275       .  A
C508       C1516   1.479       .  S
O509        C522   1.278       .  A
O509       Cd516   2.089       .  S
O510        C528   1.275       .  A
O510       Cd519   2.060       .  S
O511        C525   1.276       .  A
O511       Cd515   2.071       .  S
O512        C523   1.278       .  A
O512       Cd515   2.091       .  S
Zn513       O524   2.030       .  S
Zn513       O526   1.994       .  S
Zn513       O518   1.936       .  S
O514        C525   1.277       .  A
O514       Cd519   2.072       .  S
Cd515       O517   2.082       .  S
Cd515       O518   1.997       .  S
Cd516       O520   2.077       .  S
Cd516       O529   2.096       .  S
Cd516       O518   2.009       .  S
O517        C527   1.277       .  A
O518       Cd519   1.988       .  S
Cd519       O521   2.072       .  S
O520        C527   1.276       .  A
C522        O526   1.273       .  A
C522       C1132   1.478       .  S
C523       C2956   1.491       .  S
C525       C2692   1.482       .  S
C527       C1036   1.487       .  S
C528        O529   1.279       .  A
C528       C1361   1.487       .  S
O530        C546   1.276       .  A
O530       Zn536   2.030       .  S
C531        O547   1.275       .  A
C531        O544   1.274       .  A
C531       C1588   1.478       .  S
O532        C545   1.281       .  A
O532       Cd539   2.106       .  S
O533        C551   1.275       .  A
O533       Cd542   2.055       .  S
O534        C548   1.275       .  A
O534       Cd538   2.058       .  S
O535        C546   1.276       .  A
O535       Cd538   2.076       .  S
Zn536       O547   2.029       .  S
Zn536       O549   1.980       .  S
Zn536       O541   1.934       .  S
O537        C548   1.276       .  A
O537       Cd542   2.070       .  S
Cd538       O540   2.068       .  S
Cd538       O541   1.988       .  S
Cd539       O543   2.094       .  S
Cd539       O552   2.118       .  S
Cd539       O541   2.017       .  S
O540        C550   1.276       .  A
O541       Cd542   1.982       .  S
Cd542       O544   2.064       .  S
O543        C550   1.279       .  A
C545        O549   1.272       .  A
C545       C1108   1.482   1_556  S
C546       C2081   1.488       .  S
C548       C1913   1.479       .  S
C550       C1025   1.488       .  S
C551        O552   1.282       .  A
C551       C1001   1.491       .  S
O553        C569   1.275       .  A
O553       Zn559   2.027       .  S
C554        O570   1.276       .  A
C554        O567   1.274       .  A
C554       C2153   1.477       .  S
O555        C568   1.280       .  A
O555       Cd562   2.096       .  S
O556        C574   1.276   1_545  A
O556       Cd565   2.064       .  S
O557        C571   1.275   1_565  A
O557       Cd561   2.062       .  S
O558        C569   1.275   1_565  A
O558       Cd561   2.076       .  S
Zn559       O570   2.032       .  S
Zn559       O572   1.994       .  S
Zn559       O564   1.934   1_545  S
O560        C571   1.276       .  A
O560       Cd565   2.071       .  S
Cd561       O563   2.064       .  S
Cd561       O564   1.989       .  S
Cd562       O566   2.089       .  S
Cd562       O575   2.104       .  S
Cd562       O564   2.010       .  S
O563        C573   1.275       .  A
O564       Cd565   1.984   1_565  S
Cd565       O567   2.065       .  S
O566        C573   1.278       .  A
C568        O572   1.274   1_565  A
C568        C953   1.482       .  S
C569        C929   1.487       .  S
C571        C916   1.480       .  S
C573        C988   1.484       .  S
C574        O575   1.280       .  A
C574       C2044   1.490       .  S
O576        C592   1.275       .  A
O576       Zn582   2.031       .  S
C577        O593   1.274       .  A
C577        O590   1.273       .  A
C577       C2260   1.475       .  S
O578        C591   1.277       .  A
O578       Cd585   2.083       .  S
O579        C597   1.274       .  A
O579       Cd588   2.063       .  S
O580        C594   1.275       .  A
O580       Cd584   2.062       .  S
O581        C592   1.276       .  A
O581       Cd584   2.082       .  S
Zn582       O593   2.024       .  S
Zn582       O595   1.993       .  S
Zn582       O587   1.940       .  S
O583        C594   1.275       .  A
O583       Cd588   2.056       .  S
Cd584       O586   2.075       .  S
Cd584       O587   2.000       .  S
Cd585       O589   2.069       .  S
Cd585       O598   2.103       .  S
Cd585       O587   2.008       .  S
O586        C596   1.276       .  A
O587       Cd588   1.987       .  S
Cd588       O590   2.060       .  S
O589        C596   1.275       .  A
C591        O595   1.273       .  A
C591        C881   1.467   1_556  S
C592       C1444   1.490       .  S
C594       C1204   1.475       .  S
C596        C977   1.484       .  S
C597        O598   1.279       .  A
C597       C2849   1.489       .  S
O599        C615   1.278       .  A
O599       Zn605   2.043       .  S
C600        O616   1.277       .  A
C600        O613   1.274       .  A
C600       C2332   1.478       .  S
O601        C614   1.279       .  A
O601       Cd608   2.097       .  S
O602        C620   1.274   1_545  A
O602       Cd611   2.057       .  S
O603        C617   1.275   1_565  A
O603       Cd607   2.060       .  S
O604        C615   1.276   1_565  A
O604       Cd607   2.073       .  S
Zn605       O616   2.042       .  S
Zn605       O618   1.992       .  S
Zn605       O610   1.933   1_545  S
O606        C617   1.275       .  A
O606       Cd611   2.066       .  S
Cd607       O609   2.071       .  S
Cd607       O610   1.985       .  S
Cd608       O612   2.080       .  S
Cd608       O621   2.108       .  S
Cd608       O610   2.009       .  S
O609        C619   1.276       .  A
O610       Cd611   1.977   1_565  S
Cd611       O613   2.060       .  S
O612        C619   1.277       .  A
C614        O618   1.274   1_565  A
C614        C964   1.480       .  S
C615       C1889   1.490       .  S
C617       C1985   1.477       .  S
C619        C857   1.485       .  S
C620        O621   1.281       .  A
C620        C833   1.490       .  S
O622        C638   1.278       .  A
O622       Zn628   2.055       .  S
C623        O639   1.277       .  A
C623        O636   1.274       .  A
C623       C2441   1.479       .  S
O624        C637   1.278       .  A
O624       Cd631   2.091       .  S
O625        C643   1.275       .  A
O625       Cd634   2.065       .  S
O626        C640   1.273       .  A
O626       Cd630   2.051       .  S
O627        C638   1.275       .  A
O627       Cd630   2.066       .  S
Zn628       O639   2.038       .  S
Zn628       O641   1.995       .  S
Zn628       O633   1.946       .  S
O629        C640   1.276       .  A
O629       Cd634   2.074       .  S
Cd630       O632   2.064       .  S
Cd630       O633   1.986       .  S
Cd631       O635   2.085       .  S
Cd631       O644   2.105       .  S
Cd631       O633   2.014       .  S
O632        C642   1.275       .  A
O633       Cd634   1.990       .  S
Cd634       O636   2.064       .  S
O635        C642   1.277       .  A
C637        O641   1.274       .  A
C637        C892   1.475       .  S
C638       C2633   1.491       .  S
C640       C2812   1.478       .  S
C642        C868   1.485       .  S
C643        O644   1.280       .  A
C643       C1228   1.492       .  S
O645        C661   1.276       .  A
O645       Zn651   2.029       .  S
C646        O662   1.275       .  A
C646        O659   1.278       .  A
C646       C1012   1.491       .  S
O647        C660   1.278       .  A
O647       Cd654   2.093       .  S
O648        C666   1.278       .  A
O648       Cd657   2.080       .  S
O649        C663   1.277       .  A
O649       Cd653   2.070       .  S
O650        C661   1.275       .  A
O650       Cd653   2.076       .  S
Zn651       O662   2.020       .  S
Zn651       O664   1.989       .  S
Zn651       O656   1.930       .  S
O652        C663   1.277       .  A
O652       Cd657   2.073       .  S
Cd653       O655   2.068       .  S
Cd653       O656   1.988       .  S
Cd654       O658   2.099       .  S
Cd654       O667   2.078       .  S
Cd654       O656   2.010       .  S
O655        C665   1.276       .  A
O656       Cd657   2.000       .  S
Cd657       O659   2.095       .  S
O658        C665   1.280       .  A
C660        O664   1.273       .  A
C660        C785   1.482       .  S
C661       C1241   1.482       .  S
C663       C1049   1.482       .  S
C665       C2369   1.489       .  S
C666        O667   1.277       .  A
C666        C809   1.487       .  S
O668        C684   1.276       .  A
O668       Zn674   2.030       .  S
C669        O685   1.276       .  A
C669        O682   1.278   1_565  A
C669       C1780   1.487       .  S
O670        C683   1.279       .  A
O670       Cd677   2.095       .  S
O671        C689   1.277       .  A
O671       Cd680   2.079       .  S
O672        C686   1.276       .  A
O672       Cd676   2.065       .  S
O673        C684   1.274       .  A
O673       Cd676   2.063       .  S
Zn674       O685   2.023       .  S
Zn674       O687   1.989       .  S
Zn674       O679   1.926       .  S
O675        C686   1.277   1_545  A
O675       Cd680   2.072       .  S
Cd676       O678   2.053       .  S
Cd676       O679   1.975       .  S
Cd677       O681   2.103       .  S
Cd677       O690   2.074       .  S
Cd677       O679   2.007   1_545  S
O678        C688   1.274       .  A
O679       Cd680   1.990   1_565  S
Cd680       O682   2.085       .  S
O681        C688   1.280   1_545  A
C683        O687   1.273   1_545  A
C683        C772   1.480       .  S
C684       C1180   1.477       .  S
C686       C1612   1.481       .  S
C688        C940   1.487       .  S
C689        O690   1.276       .  A
C689        C820   1.483       .  S
O691        C707   1.278       .  A
O691       Zn697   2.046       .  S
C692        O708   1.278       .  A
C692        O705   1.275       .  A
C692       C2201   1.488       .  S
O693        C706   1.279       .  A
O693       Cd700   2.091       .  S
O694        C712   1.274       .  A
O694       Cd703   2.062       .  S
O695        C709   1.276       .  A
O695       Cd699   2.074       .  S
O696        C707   1.275       .  A
O696       Cd699   2.066       .  S
Zn697       O708   2.043       .  S
Zn697       O710   1.997       .  S
Zn697       O702   1.938       .  S
O698        C709   1.273       .  A
O698       Cd703   2.049       .  S
Cd699       O701   2.067       .  S
Cd699       O702   1.985       .  S
Cd700       O704   2.095       .  S
Cd700       O713   2.081       .  S
Cd700       O702   2.008       .  S
O701        C711   1.276       .  A
O702       Cd703   1.982       .  S
Cd703       O705   2.066       .  S
O704        C711   1.279       .  A
C706        O710   1.274       .  A
C706        C796   1.479   1_554  S
C707       C1324   1.482       .  S
C709       C2356   1.478       .  S
C711       C1073   1.488       .  S
C712        O713   1.276       .  A
C712        C737   1.484       .  S
O714        C730   1.276       .  A
O714       Zn720   2.031       .  S
C715        O731   1.275       .  A
C715        O728   1.276   1_565  A
C715        C844   1.489       .  S
O716        C729   1.278       .  A
O716       Cd723   2.092       .  S
O717        C735   1.275       .  A
O717       Cd726   2.065       .  S
O718        C732   1.277       .  A
O718       Cd722   2.074       .  S
O719        C730   1.274       .  A
O719       Cd722   2.071       .  S
Zn720       O731   2.022       .  S
Zn720       O733   1.993       .  S
Zn720       O725   1.935   1_565  S
O721        C732   1.275   1_545  A
O721       Cd726   2.063       .  S
Cd722       O724   2.063       .  S
Cd722       O725   1.990   1_565  S
Cd723       O727   2.103       .  S
Cd723       O736   2.082       .  S
Cd723       O725   2.015       .  S
O724        C734   1.275   1_565  A
O725       Cd726   1.996       .  S
Cd726       O728   2.084       .  S
O727        C734   1.280       .  A
C729        O733   1.274   1_545  A
C729        C761   1.482       .  S
C730       C1409   1.476       .  S
C732        C905   1.480       .  S
C734       C1636   1.489       .  S
C735        O736   1.277       .  A
C735        C748   1.484       .  S
C737        C738   1.405       .  A
C737        C742   1.406       .  A
C738        C739   1.399       .  A
C738        H751   1.083       .  S
C739        C740   1.405       .  A
C739        H752   1.083       .  S
C740        C741   1.409       .  A
C740        C743   1.492       .  S
C741        C742   1.398       .  A
C741        H753   1.079       .  S
C742        H754   1.083       .  S
C743        C744   1.349       .  D
C743        H755   1.086       .  S
C744        C745   1.484       .  S
C744        H756   1.083       .  S
C745        C746   1.402       .  A
C745        C750   1.407       .  A
C746        C747   1.397       .  A
C746        H757   1.083       .  S
C747        C748   1.407       .  A
C747        H758   1.083       .  S
C748        C749   1.407       .  A
C749        C750   1.400       .  A
C749        H759   1.083       .  S
C750        H760   1.082       .  S
C761        C762   1.406       .  A
C761        C766   1.407       .  A
C762        C763   1.403       .  A
C762        H775   1.083       .  S
C763        C764   1.405       .  A
C763        H776   1.083       .  S
C764        C765   1.403       .  A
C764        C767   1.482       .  S
C765        C766   1.392       .  A
C765        H777   1.082   1_545  S
C766        H778   1.083   1_545  S
C767        C768   1.349       .  D
C767        H779   1.087       .  S
C768        C769   1.482       .  S
C768        H780   1.087       .  S
C769        C770   1.406       .  A
C769        C774   1.403       .  A
C770        C771   1.404       .  A
C770        H781   1.083       .  S
C771        C772   1.405       .  A
C771        H782   1.083       .  S
C772        C773   1.407   1_545  A
C773        C774   1.391   1_565  A
C773        H783   1.083       .  S
C774        H784   1.082   1_545  S
C785        C786   1.406       .  A
C785        C790   1.407       .  A
C786        C787   1.404       .  A
C786        H799   1.083       .  S
C787        C788   1.405       .  A
C787        H800   1.083       .  S
C788        C789   1.403       .  A
C788        C791   1.482       .  S
C789        C790   1.391       .  A
C789        H801   1.082       .  S
C790        H802   1.083       .  S
C791        C792   1.348       .  D
C791        H803   1.086       .  S
C792        C793   1.482       .  S
C792        H804   1.087       .  S
C793        C794   1.405       .  A
C793        C798   1.403       .  A
C794        C795   1.402       .  A
C794        H805   1.083       .  S
C795        C796   1.404       .  A
C795        H806   1.083       .  S
C796        C797   1.407       .  A
C797        C798   1.394       .  A
C797        H807   1.083       .  S
C798        H808   1.082       .  S
C809        C810   1.407       .  A
C809        C814   1.406       .  A
C810        C811   1.400       .  A
C810        H823   1.083       .  S
C811        C812   1.404       .  A
C811        H824   1.084       .  S
C812        C813   1.408       .  A
C812        C815   1.490       .  S
C813        C814   1.399       .  A
C813        H825   1.081       .  S
C814        H826   1.083       .  S
C815        C816   1.350       .  D
C815        H827   1.085       .  S
C816        C817   1.488       .  S
C816        H828   1.085       .  S
C817        C818   1.404       .  A
C817        C822   1.408       .  A
C818        C819   1.399       .  A
C818        H829   1.083       .  S
C819        C820   1.404       .  A
C819        H830   1.083       .  S
C820        C821   1.407       .  A
C821        C822   1.400       .  A
C821        H831   1.083       .  S
C822        H832   1.081       .  S
C833        C834   1.407   1_565  A
C833        C838   1.406       .  A
C834        C835   1.396       .  A
C834        H847   1.083       .  S
C835        C836   1.403   1_545  A
C835        H848   1.084       .  S
C836        C837   1.412       .  A
C836        C839   1.496       .  S
C837        C838   1.406       .  A
C837        H849   1.080       .  S
C838        H850   1.083       .  S
C839        C840   1.350       .  D
C839        H851   1.084   1_565  S
C840        C841   1.496       .  S
C840        H852   1.083       .  S
C841        C842   1.404       .  A
C841        C846   1.411   1_565  A
C842        C843   1.399   1_455  A
C842        H853   1.084       .  S
C843        C844   1.407       .  A
C843        H854   1.083       .  S
C844        C845   1.406   1_665  A
C845        C846   1.402       .  A
C845        H855   1.083       .  S
C846        H856   1.080       .  S
C857        C858   1.406       .  A
C857        C862   1.406       .  A
C858        C859   1.399       .  A
C858        H871   1.083       .  S
C859        C860   1.404       .  A
C859        H872   1.083       .  S
C860        C861   1.409       .  A
C860        C863   1.490       .  S
C861        C862   1.399       .  A
C861        H873   1.080       .  S
C862        H874   1.083       .  S
C863        C864   1.349       .  D
C863        H875   1.085       .  S
C864        C865   1.487       .  S
C864        H876   1.084       .  S
C865        C866   1.403       .  A
C865        C870   1.408       .  A
C866        C867   1.398       .  A
C866        H877   1.084       .  S
C867        C868   1.407       .  A
C867        H878   1.083       .  S
C868        C869   1.406       .  A
C869        C870   1.400       .  A
C869        H879   1.083       .  S
C870        H880   1.081       .  S
C881        C882   1.401       .  A
C881        C886   1.403       .  A
C882        C883   1.393       .  A
C882        H895   1.084       .  S
C883        C884   1.402       .  A
C883        H896   1.084       .  S
C884        C885   1.407       .  A
C884        C887   1.479       .  S
C885        C886   1.400       .  A
C885        H897   1.082       .  S
C886        H898   1.083       .  S
C887        C888   1.348       .  D
C887        H899   1.086       .  S
C888        C889   1.484       .  S
C888        H900   1.086       .  S
C889        C890   1.405       .  A
C889        C894   1.406       .  A
C890        C891   1.403       .  A
C890        H901   1.083       .  S
C891        C892   1.405       .  A
C891        H902   1.083       .  S
C892        C893   1.403       .  A
C893        C894   1.392       .  A
C893        H903   1.083       .  S
C894        H904   1.082       .  S
C905        C906   1.405       .  A
C905        C910   1.406   1_565  A
C906        C907   1.397       .  A
C906        H919   1.083       .  S
C907        C908   1.403       .  A
C907        H920   1.084       .  S
C908        C909   1.407   1_565  A
C908        C911   1.484       .  S
C909        C910   1.396       .  A
C909        H921   1.081   1_655  S
C910        H922   1.083       .  S
C911        C912   1.347   1_665  D
C911        H923   1.085   1_554  S
C912        C913   1.483   1_554  S
C912        H924   1.085       .  S
C913        C914   1.403       .  A
C913        C918   1.406   1_545  A
C914        C915   1.398       .  A
C914        H925   1.084       .  S
C915        C916   1.406       .  A
C915        H926   1.083       .  S
C916        C917   1.406   1_545  A
C917        C918   1.395       .  A
C917        H927   1.083       .  S
C918        H928   1.081       .  S
C929        C930   1.406       .  A
C929        C934   1.406   1_545  A
C930        C931   1.399       .  A
C930        H943   1.083       .  S
C931        C932   1.404   1_455  A
C931        H944   1.084       .  S
C932        C933   1.410   1_545  A
C932        C935   1.494       .  S
C933        C934   1.401   1_655  A
C933        H945   1.080       .  S
C934        H946   1.083       .  S
C935        C936   1.348   1_545  D
C935        H947   1.085       .  S
C936        C937   1.491       .  S
C936        H948   1.085       .  S
C937        C938   1.401       .  A
C937        C942   1.411   1_565  A
C938        C939   1.394       .  A
C938        H949   1.084       .  S
C939        C940   1.407       .  A
C939        H950   1.083       .  S
C940        C941   1.406   1_565  A
C941        C942   1.405       .  A
C941        H951   1.083       .  S
C942        H952   1.081       .  S
C953        C954   1.405       .  A
C953        C958   1.407       .  A
C954        C955   1.402       .  A
C954        H967   1.083       .  S
C955        C956   1.406       .  A
C955        H968   1.083       .  S
C956        C957   1.404       .  A
C956        C959   1.484       .  S
C957        C958   1.394       .  A
C957        H969   1.082   1_565  S
C958        H970   1.083   1_565  S
C959        C960   1.350       .  D
C959        H971   1.086       .  S
C960        C961   1.485       .  S
C960        H972   1.086       .  S
C961        C962   1.407       .  A
C961        C966   1.404       .  A
C962        C963   1.404       .  A
C962        H973   1.083       .  S
C963        C964   1.405       .  A
C963        H974   1.083       .  S
C964        C965   1.406       .  A
C965        C966   1.392       .  A
C965        H975   1.083   1_565  S
C966        H976   1.082       .  S
C977        C978   1.406       .  A
C977        C982   1.406       .  A
C978        C979   1.397       .  A
C978        H991   1.083       .  S
C979        C980   1.403       .  A
C979        H992   1.083       .  S
C980        C981   1.409       .  A
C980        C983   1.488       .  S
C981        C982   1.400       .  A
C981        H993   1.081       .  S
C982        H994   1.083       .  S
C983        C984   1.348       .  D
C983        H995   1.085       .  S
C984        C985   1.486       .  S
C984        H996   1.085       .  S
C985        C986   1.402       .  A
C985        C990   1.408       .  A
C986        C987   1.397       .  A
C986        H997   1.084       .  S
C987        C988   1.407       .  A
C987        H998   1.083       .  S
C988        C989   1.406       .  A
C989        C990   1.400       .  A
C989        H999   1.083       .  S
C990       H1000   1.082       .  S
C1001      C1002   1.408       .  A
C1001      C1006   1.407       .  A
C1002      C1003   1.395       .  A
C1002      H1015   1.083       .  S
C1003      C1004   1.401       .  A
C1003      H1016   1.084       .  S
C1004      C1005   1.412       .  A
C1004      C1007   1.494       .  S
C1005      C1006   1.409       .  A
C1005      H1017   1.081       .  S
C1006      H1018   1.083       .  S
C1007      C1008   1.349       .  D
C1007      H1019   1.083       .  S
C1008      C1009   1.499       .  S
C1008      H1020   1.086       .  S
C1009      C1010   1.404       .  A
C1009      C1014   1.413       .  A
C1010      C1011   1.400       .  A
C1010      H1021   1.084       .  S
C1011      C1012   1.407       .  A
C1011      H1022   1.083       .  S
C1012      C1013   1.406       .  A
C1013      C1014   1.404       .  A
C1013      H1023   1.083       .  S
C1014      H1024   1.080       .  S
C1025      C1026   1.405       .  A
C1025      C1030   1.407       .  A
C1026      C1027   1.400       .  A
C1026      H1039   1.083       .  S
C1027      C1028   1.406       .  A
C1027      H1040   1.083       .  S
C1028      C1029   1.409       .  A
C1028      C1031   1.494       .  S
C1029      C1030   1.400       .  A
C1029      H1041   1.080       .  S
C1030      H1042   1.083       .  S
C1031      C1032   1.351       .  D
C1031      H1043   1.085       .  S
C1032      C1033   1.490       .  S
C1032      H1044   1.083       .  S
C1033      C1034   1.404       .  A
C1033      C1038   1.407       .  A
C1034      C1035   1.400       .  A
C1034      H1045   1.083       .  S
C1035      C1036   1.407       .  A
C1035      H1046   1.083       .  S
C1036      C1037   1.407       .  A
C1037      C1038   1.400       .  A
C1037      H1047   1.083       .  S
C1038      H1048   1.082       .  S
C1049      C1050   1.405       .  A
C1049      C1054   1.407       .  A
C1050      C1051   1.396       .  A
C1050      H1063   1.083       .  S
C1051      C1052   1.403       .  A
C1051      H1064   1.084       .  S
C1052      C1053   1.407       .  A
C1052      C1055   1.484       .  S
C1053      C1054   1.398       .  A
C1053      H1065   1.081       .  S
C1054      H1066   1.083       .  S
C1055      C1056   1.348       .  D
C1055      H1067   1.084       .  S
C1056      C1057   1.487       .  S
C1056      H1068   1.085       .  S
C1057      C1058   1.404       .  A
C1057      C1062   1.408       .  A
C1058      C1059   1.399       .  A
C1058      H1069   1.083       .  S
C1059      C1060   1.406       .  A
C1059      H1070   1.083       .  S
C1060      C1061   1.405       .  A
C1061      C1062   1.395       .  A
C1061      H1071   1.083       .  S
C1062      H1072   1.080       .  S
C1073      C1074   1.406       .  A
C1073      C1078   1.407       .  A
C1074      C1075   1.403       .  A
C1074      H1087   1.083       .  S
C1075      C1076   1.407       .  A
C1075      H1088   1.083       .  S
C1076      C1077   1.409       .  A
C1076      C1079   1.497       .  S
C1077      C1078   1.398       .  A
C1077      H1089   1.079       .  S
C1078      H1090   1.083       .  S
C1079      C1080   1.352       .  D
C1079      H1091   1.084       .  S
C1080      C1081   1.492       .  S
C1080      H1092   1.082       .  S
C1081      C1082   1.405       .  A
C1081      C1086   1.408       .  A
C1082      C1083   1.399       .  A
C1082      H1093   1.083       .  S
C1083      C1084   1.405       .  A
C1083      H1094   1.083       .  S
C1084      C1085   1.408       .  A
C1085      C1086   1.402       .  A
C1085      H1095   1.083       .  S
C1086      H1096   1.081       .  S
C1097      C1098   1.405       .  A
C1097      C1102   1.408       .  A
C1098      C1099   1.403       .  A
C1098      H1111   1.083       .  S
C1099      C1100   1.406       .  A
C1099      H1112   1.083       .  S
C1100      C1101   1.403       .  A
C1100      C1103   1.484       .  S
C1101      C1102   1.393       .  A
C1101      H1113   1.082       .  S
C1102      H1114   1.083       .  S
C1103      C1104   1.350       .  D
C1103      H1115   1.086       .  S
C1104      C1105   1.483       .  S
C1104      H1116   1.086       .  S
C1105      C1106   1.406       .  A
C1105      C1110   1.403       .  A
C1106      C1107   1.404       .  A
C1106      H1117   1.083       .  S
C1107      C1108   1.405       .  A
C1107      H1118   1.083       .  S
C1108      C1109   1.408       .  A
C1109      C1110   1.391       .  A
C1109      H1119   1.083       .  S
C1110      H1120   1.082       .  S
C1121      C1122   1.403       .  A
C1121      C1126   1.405       .  A
C1122      C1123   1.393       .  A
C1122      H1135   1.084       .  S
C1123      C1124   1.401       .  A
C1123      H1136   1.084       .  S
C1124      C1125   1.407       .  A
C1124      C1127   1.479       .  S
C1125      C1126   1.403       .  A
C1125      H1137   1.083       .  S
C1126      H1138   1.083       .  S
C1127      C1128   1.348       .  D
C1127      H1139   1.085       .  S
C1128      C1129   1.487       .  S
C1128      H1140   1.086       .  S
C1129      C1130   1.405       .  A
C1129      C1134   1.406       .  A
C1130      C1131   1.403       .  A
C1130      H1141   1.083       .  S
C1131      C1132   1.406       .  A
C1131      H1142   1.083       .  S
C1132      C1133   1.404       .  A
C1133      C1134   1.392       .  A
C1133      H1143   1.083       .  S
C1134      H1144   1.082       .  S
C1145      C1146   1.406       .  A
C1145      C1150   1.406       .  A
C1146      C1147   1.400       .  A
C1146      H1159   1.083       .  S
C1147      C1148   1.404       .  A
C1147      H1160   1.083       .  S
C1148      C1149   1.409       .  A
C1148      C1151   1.491       .  S
C1149      C1150   1.399       .  A
C1149      H1161   1.081       .  S
C1150      H1162   1.083       .  S
C1151      C1152   1.349       .  D
C1151      H1163   1.085       .  S
C1152      C1153   1.489       .  S
C1152      H1164   1.084       .  S
C1153      C1154   1.403       .  A
C1153      C1158   1.408       .  A
C1154      C1155   1.398       .  A
C1154      H1165   1.084       .  S
C1155      C1156   1.406       .  A
C1155      H1166   1.083       .  S
C1156      C1157   1.407       .  A
C1157      C1158   1.401       .  A
C1157      H1167   1.083       .  S
C1158      H1168   1.081       .  S
C1169      C1170   1.404       .  A
C1169      C1174   1.405       .  A
C1170      C1171   1.397       .  A
C1170      H1183   1.083       .  S
C1171      C1172   1.401       .  A
C1171      H1184   1.083       .  S
C1172      C1173   1.407       .  A
C1172      C1175   1.480       .  S
C1173      C1174   1.401       .  A
C1173      H1185   1.083       .  S
C1174      H1186   1.083       .  S
C1175      C1176   1.344       .  D
C1175      H1187   1.087       .  S
C1176      C1177   1.481       .  S
C1176      H1188   1.087       .  S
C1177      C1178   1.401       .  A
C1177      C1182   1.407       .  A
C1178      C1179   1.397       .  A
C1178      H1189   1.083       .  S
C1179      C1180   1.406       .  A
C1179      H1190   1.083       .  S
C1180      C1181   1.404       .  A
C1181      C1182   1.400       .  A
C1181      H1191   1.083       .  S
C1182      H1192   1.083       .  S
C1193      C1194   1.406       .  A
C1193      C1198   1.405       .  A
C1194      C1195   1.397       .  A
C1194      H1207   1.083       .  S
C1195      C1196   1.401       .  A
C1195      H1208   1.083       .  S
C1196      C1197   1.405       .  A
C1196      C1199   1.478       .  S
C1197      C1198   1.393       .  A
C1197      H1209   1.082   1_655  S
C1198      H1210   1.083       .  S
C1199      C1200   1.345   1_655  D
C1199      H1211   1.084       .  S
C1200      C1201   1.480       .  S
C1200      H1212   1.086       .  S
C1201      C1202   1.402       .  A
C1201      C1206   1.407       .  A
C1202      C1203   1.393       .  A
C1202      H1213   1.084       .  S
C1203      C1204   1.404       .  A
C1203      H1214   1.083       .  S
C1204      C1205   1.405       .  A
C1205      C1206   1.396       .  A
C1205      H1215   1.083       .  S
C1206      H1216   1.080       .  S
C1217      C1218   1.406   1_655  A
C1217      C1222   1.408       .  A
C1218      C1219   1.399       .  A
C1218      H1231   1.083       .  S
C1219      C1220   1.405       .  A
C1219      H1232   1.083       .  S
C1220      C1221   1.409       .  A
C1220      C1223   1.495       .  S
C1221      C1222   1.404   1_455  A
C1221      H1233   1.081       .  S
C1222      H1234   1.083       .  S
C1223      C1224   1.353       .  D
C1223      H1235   1.083       .  S
C1224      C1225   1.499       .  S
C1224      H1236   1.085       .  S
C1225      C1226   1.408       .  A
C1225      C1230   1.409       .  A
C1226      C1227   1.405       .  A
C1226      H1237   1.083       .  S
C1227      C1228   1.406       .  A
C1227      H1238   1.083       .  S
C1228      C1229   1.408       .  A
C1229      C1230   1.399       .  A
C1229      H1239   1.083       .  S
C1230      H1240   1.079       .  S
C1241      C1242   1.405       .  A
C1241      C1246   1.406       .  A
C1242      C1243   1.401       .  A
C1242      H1255   1.083       .  S
C1243      C1244   1.403       .  A
C1243      H1256   1.083       .  S
C1244      C1245   1.405       .  A
C1244      C1247   1.483       .  S
C1245      C1246   1.400       .  A
C1245      H1257   1.083       .  S
C1246      H1258   1.083       .  S
C1247      C1248   1.346       .  D
C1247      H1259   1.087       .  S
C1248      C1249   1.483       .  S
C1248      H1260   1.086       .  S
C1249      C1250   1.404       .  A
C1249      C1254   1.404       .  A
C1250      C1251   1.402       .  A
C1250      H1261   1.083       .  S
C1251      C1252   1.404       .  A
C1251      H1262   1.083       .  S
C1252      C1253   1.406       .  A
C1253      C1254   1.398       .  A
C1253      H1263   1.083       .  S
C1254      H1264   1.083       .  S
C1265      C1266   1.407       .  A
C1265      C1270   1.405       .  A
C1266      C1267   1.400       .  A
C1266      H1279   1.083       .  S
C1267      C1268   1.404       .  A
C1267      H1280   1.084       .  S
C1268      C1269   1.410       .  A
C1268      C1271   1.492       .  S
C1269      C1270   1.398       .  A
C1269      H1281   1.080       .  S
C1270      H1282   1.083       .  S
C1271      C1272   1.348       .  D
C1271      H1283   1.086       .  S
C1272      C1273   1.487       .  S
C1272      H1284   1.084       .  S
C1273      C1274   1.401       .  A
C1273      C1278   1.409       .  A
C1274      C1275   1.394       .  A
C1274      H1285   1.084       .  S
C1275      C1276   1.406       .  A
C1275      H1286   1.083       .  S
C1276      C1277   1.407       .  A
C1277      C1278   1.404       .  A
C1277      H1287   1.083       .  S
C1278      H1288   1.081       .  S
C1289      C1290   1.406       .  A
C1289      C1294   1.405       .  A
C1290      C1291   1.398       .  A
C1290      H1303   1.083       .  S
C1291      C1292   1.404       .  A
C1291      H1304   1.083       .  S
C1292      C1293   1.410       .  A
C1292      C1295   1.491       .  S
C1293      C1294   1.400       .  A
C1293      H1305   1.080       .  S
C1294      H1306   1.083       .  S
C1295      C1296   1.349       .  D
C1295      H1307   1.086       .  S
C1296      C1297   1.487       .  S
C1296      H1308   1.083       .  S
C1297      C1298   1.402       .  A
C1297      C1302   1.408       .  A
C1298      C1299   1.398       .  A
C1298      H1309   1.084       .  S
C1299      C1300   1.407       .  A
C1299      H1310   1.083       .  S
C1300      C1301   1.407       .  A
C1301      C1302   1.400       .  A
C1301      H1311   1.083       .  S
C1302      H1312   1.082       .  S
C1313      C1314   1.406       .  A
C1313      C1318   1.407       .  A
C1314      C1315   1.397       .  A
C1314      H1327   1.083       .  S
C1315      C1316   1.400       .  A
C1315      H1328   1.083       .  S
C1316      C1317   1.406       .  A
C1316      C1319   1.481       .  S
C1317      C1318   1.403       .  A
C1317      H1329   1.083       .  S
C1318      H1330   1.083       .  S
C1319      C1320   1.342       .  D
C1319      H1331   1.087       .  S
C1320      C1321   1.482       .  S
C1320      H1332   1.087       .  S
C1321      C1322   1.401       .  A
C1321      C1326   1.406       .  A
C1322      C1323   1.397       .  A
C1322      H1333   1.083       .  S
C1323      C1324   1.406       .  A
C1323      H1334   1.083       .  S
C1324      C1325   1.406       .  A
C1325      C1326   1.403       .  A
C1325      H1335   1.083       .  S
C1326      H1336   1.083       .  S
C1337      C1338   1.406       .  A
C1337      C1342   1.406       .  A
C1338      C1339   1.394       .  A
C1338      H1351   1.083       .  S
C1339      C1340   1.402       .  A
C1339      H1352   1.083       .  S
C1340      C1341   1.410       .  A
C1340      C1343   1.486       .  S
C1341      C1342   1.401       .  A
C1341      H1353   1.081       .  S
C1342      H1354   1.083       .  S
C1343      C1344   1.346       .  D
C1343      H1355   1.085       .  S
C1344      C1345   1.486       .  S
C1344      H1356   1.084       .  S
C1345      C1346   1.402       .  A
C1345      C1350   1.409       .  A
C1346      C1347   1.397       .  A
C1346      H1357   1.083       .  S
C1347      C1348   1.407       .  A
C1347      H1358   1.083       .  S
C1348      C1349   1.404       .  A
C1349      C1350   1.399       .  A
C1349      H1359   1.083       .  S
C1350      H1360   1.081       .  S
C1361      C1362   1.406       .  A
C1361      C1366   1.406       .  A
C1362      C1363   1.403       .  A
C1362      H1375   1.083       .  S
C1363      C1364   1.406       .  A
C1363      H1376   1.083       .  S
C1364      C1365   1.408       .  A
C1364      C1367   1.494       .  S
C1365      C1366   1.396       .  A
C1365      H1377   1.080       .  S
C1366      H1378   1.083       .  S
C1367      C1368   1.350       .  D
C1367      H1379   1.085       .  S
C1368      C1369   1.488       .  S
C1368      H1380   1.083       .  S
C1369      C1370   1.404   1_556  A
C1369      C1374   1.408       .  A
C1370      C1371   1.397       .  A
C1370      H1381   1.083       .  S
C1371      C1372   1.404       .  A
C1371      H1382   1.083       .  S
C1372      C1373   1.407   1_554  A
C1373      C1374   1.402       .  A
C1373      H1383   1.083       .  S
C1374      H1384   1.082       .  S
C1385      C1386   1.403       .  A
C1385      C1390   1.405       .  A
C1386      C1387   1.394       .  A
C1386      H1399   1.083       .  S
C1387      C1388   1.400       .  A
C1387      H1400   1.084       .  S
C1388      C1389   1.402       .  A
C1388      C1391   1.469       .  S
C1389      C1390   1.399       .  A
C1389      H1401   1.083       .  S
C1390      H1402   1.083       .  S
C1391      C1392   1.347       .  D
C1391      H1403   1.084       .  S
C1392      C1393   1.486       .  S
C1392      H1404   1.087       .  S
C1393      C1394   1.407       .  A
C1393      C1398   1.404       .  A
C1394      C1395   1.405       .  A
C1394      H1405   1.083       .  S
C1395      C1396   1.405       .  A
C1395      H1406   1.083       .  S
C1396      C1397   1.407       .  A
C1397      C1398   1.388       .  A
C1397      H1407   1.083       .  S
C1398      H1408   1.081       .  S
C1409      C1410   1.404       .  A
C1409      C1414   1.405       .  A
C1410      C1411   1.400       .  A
C1410      H1423   1.083       .  S
C1411      C1412   1.404       .  A
C1411      H1424   1.083       .  S
C1412      C1413   1.405       .  A
C1412      C1415   1.482       .  S
C1413      C1414   1.400       .  A
C1413      H1425   1.083       .  S
C1414      H1426   1.083       .  S
C1415      C1416   1.346       .  D
C1415      H1427   1.087       .  S
C1416      C1417   1.484       .  S
C1416      H1428   1.087       .  S
C1417      C1418   1.404       .  A
C1417      C1422   1.404       .  A
C1418      C1419   1.402       .  A
C1418      H1429   1.083       .  S
C1419      C1420   1.406       .  A
C1419      H1430   1.083       .  S
C1420      C1421   1.407       .  A
C1421      C1422   1.398       .  A
C1421      H1431   1.083       .  S
C1422      H1432   1.083       .  S
C1433      C1434   1.407       .  A
C1433      C1438   1.408       .  A
C1434      C1435   1.397       .  A
C1434      H1447   1.083       .  S
C1435      C1436   1.403       .  A
C1435      H1448   1.084       .  S
C1436      C1437   1.409       .  A
C1436      C1439   1.491       .  S
C1437      C1438   1.405       .  A
C1437      H1449   1.081       .  S
C1438      H1450   1.083       .  S
C1439      C1440   1.350       .  D
C1439      H1451   1.083       .  S
C1440      C1441   1.498       .  S
C1440      H1452   1.086       .  S
C1441      C1442   1.406   1_655  A
C1441      C1446   1.411       .  A
C1442      C1443   1.401       .  A
C1442      H1453   1.084       .  S
C1443      C1444   1.407   1_554  A
C1443      H1454   1.083       .  S
C1444      C1445   1.406       .  A
C1445      C1446   1.401   1_456  A
C1445      H1455   1.083       .  S
C1446      H1456   1.079       .  S
C1457      C1458   1.405       .  A
C1457      C1462   1.403       .  A
C1458      C1459   1.403       .  A
C1458      H1471   1.083       .  S
C1459      C1460   1.405       .  A
C1459      H1472   1.083       .  S
C1460      C1461   1.407       .  A
C1460      C1463   1.487       .  S
C1461      C1462   1.392       .  A
C1461      H1473   1.081       .  S
C1462      H1474   1.084       .  S
C1463      C1464   1.348       .  D
C1463      H1475   1.086       .  S
C1464      C1465   1.479       .  S
C1464      H1476   1.085       .  S
C1465      C1466   1.402       .  A
C1465      C1470   1.407       .  A
C1466      C1467   1.394       .  A
C1466      H1477   1.084       .  S
C1467      C1468   1.402       .  A
C1467      H1478   1.083       .  S
C1468      C1469   1.404       .  A
C1469      C1470   1.401       .  A
C1469      H1479   1.083       .  S
C1470      H1480   1.082       .  S
C1481      C1482   1.407       .  A
C1481      C1486   1.406       .  A
C1482      C1483   1.398       .  A
C1482      H1495   1.083       .  S
C1483      C1484   1.403       .  A
C1483      H1496   1.083       .  S
C1484      C1485   1.409       .  A
C1484      C1487   1.491       .  S
C1485      C1486   1.402       .  A
C1485      H1497   1.081       .  S
C1486      H1498   1.083       .  S
C1487      C1488   1.350       .  D
C1487      H1499   1.085       .  S
C1488      C1489   1.492       .  S
C1488      H1500   1.085       .  S
C1489      C1490   1.404       .  A
C1489      C1494   1.409       .  A
C1490      C1491   1.399       .  A
C1490      H1501   1.083       .  S
C1491      C1492   1.406       .  A
C1491      H1502   1.083       .  S
C1492      C1493   1.407       .  A
C1493      C1494   1.401       .  A
C1493      H1503   1.083       .  S
C1494      H1504   1.081       .  S
C1505      C1506   1.405       .  A
C1505      C1510   1.406       .  A
C1506      C1507   1.398       .  A
C1506      H1519   1.083       .  S
C1507      C1508   1.401       .  A
C1507      H1520   1.083       .  S
C1508      C1509   1.406       .  A
C1508      C1511   1.482       .  S
C1509      C1510   1.402       .  A
C1509      H1521   1.083       .  S
C1510      H1522   1.083       .  S
C1511      C1512   1.343       .  D
C1511      H1523   1.087       .  S
C1512      C1513   1.481       .  S
C1512      H1524   1.087       .  S
C1513      C1514   1.401       .  A
C1513      C1518   1.406       .  A
C1514      C1515   1.398       .  A
C1514      H1525   1.083       .  S
C1515      C1516   1.405       .  A
C1515      H1526   1.083       .  S
C1516      C1517   1.405       .  A
C1517      C1518   1.402       .  A
C1517      H1527   1.083       .  S
C1518      H1528   1.083       .  S
C1529      C1530   1.405       .  A
C1529      C1534   1.404       .  A
C1530      C1531   1.393       .  A
C1530      H1543   1.083       .  S
C1531      C1532   1.401       .  A
C1531      H1544   1.083       .  S
C1532      C1533   1.409       .  A
C1532      C1535   1.482       .  S
C1533      C1534   1.398       .  A
C1533      H1545   1.081       .  S
C1534      H1546   1.083       .  S
C1535      C1536   1.344   1_556  D
C1535      H1547   1.086       .  S
C1536      C1537   1.479       .  S
C1536      H1548   1.084       .  S
C1537      C1538   1.400       .  A
C1537      C1542   1.407       .  A
C1538      C1539   1.394       .  A
C1538      H1549   1.083       .  S
C1539      C1540   1.407       .  A
C1539      H1550   1.083       .  S
C1540      C1541   1.404       .  A
C1541      C1542   1.397       .  A
C1541      H1551   1.083       .  S
C1542      H1552   1.082       .  S
C1553      C1554   1.405       .  A
C1553      C1558   1.408       .  A
C1554      C1555   1.398       .  A
C1554      H1567   1.083       .  S
C1555      C1556   1.405       .  A
C1555      H1568   1.083       .  S
C1556      C1557   1.409       .  A
C1556      C1559   1.493       .  S
C1557      C1558   1.404       .  A
C1557      H1569   1.081       .  S
C1558      H1570   1.083       .  S
C1559      C1560   1.352       .  D
C1559      H1571   1.085       .  S
C1560      C1561   1.494       .  S
C1560      H1572   1.084       .  S
C1561      C1562   1.407       .  A
C1561      C1566   1.406       .  A
C1562      C1563   1.406       .  A
C1562      H1573   1.083       .  S
C1563      C1564   1.406       .  A
C1563      H1574   1.083       .  S
C1564      C1565   1.408       .  A
C1565      C1566   1.396       .  A
C1565      H1575   1.083       .  S
C1566      H1576   1.082       .  S
C1577      C1578   1.406       .  A
C1577      C1582   1.406       .  A
C1578      C1579   1.397       .  A
C1578      H1591   1.083       .  S
C1579      C1580   1.401       .  A
C1579      H1592   1.083       .  S
C1580      C1581   1.406       .  A
C1580      C1583   1.481       .  S
C1581      C1582   1.402       .  A
C1581      H1593   1.083       .  S
C1582      H1594   1.083       .  S
C1583      C1584   1.342       .  D
C1583      H1595   1.087       .  S
C1584      C1585   1.480       .  S
C1584      H1596   1.087       .  S
C1585      C1586   1.400       .  A
C1585      C1590   1.406       .  A
C1586      C1587   1.396       .  A
C1586      H1597   1.083       .  S
C1587      C1588   1.405       .  A
C1587      H1598   1.083       .  S
C1588      C1589   1.405       .  A
C1589      C1590   1.403       .  A
C1589      H1599   1.083       .  S
C1590      H1600   1.083       .  S
C1601      C1602   1.405       .  A
C1601      C1606   1.407   1_545  A
C1602      C1603   1.397       .  A
C1602      H1615   1.083       .  S
C1603      C1604   1.402       .  A
C1603      H1616   1.084       .  S
C1604      C1605   1.405   1_545  A
C1604      C1607   1.481       .  S
C1605      C1606   1.396       .  A
C1605      H1617   1.082       .  S
C1606      H1618   1.083       .  S
C1607      C1608   1.348   1_545  D
C1607      H1619   1.084       .  S
C1608      C1609   1.486       .  S
C1608      H1620   1.086       .  S
C1609      C1610   1.403       .  A
C1609      C1614   1.408       .  A
C1610      C1611   1.398       .  A
C1610      H1621   1.084       .  S
C1611      C1612   1.406       .  A
C1611      H1622   1.083       .  S
C1612      C1613   1.405       .  A
C1613      C1614   1.396       .  A
C1613      H1623   1.083   1_565  S
C1614      H1624   1.080   1_565  S
C1625      C1626   1.406   1_545  A
C1625      C1630   1.408   1_556  A
C1626      C1627   1.396   1_556  A
C1626      H1639   1.083       .  S
C1627      C1628   1.404   1_565  A
C1627      H1640   1.083       .  S
C1628      C1629   1.409       .  A
C1628      C1631   1.491       .  S
C1629      C1630   1.405       .  A
C1629      H1641   1.081       .  S
C1630      H1642   1.083       .  S
C1631      C1632   1.351       .  D
C1631      H1643   1.083   1_545  S
C1632      C1633   1.498       .  S
C1632      H1644   1.084       .  S
C1633      C1634   1.408       .  A
C1633      C1638   1.409   1_545  A
C1634      C1635   1.405       .  A
C1634      H1645   1.083       .  S
C1635      C1636   1.406       .  A
C1635      H1646   1.083       .  S
C1636      C1637   1.407   1_545  A
C1637      C1638   1.397       .  A
C1637      H1647   1.083       .  S
C1638      H1648   1.080       .  S
C1649      C1650   1.406       .  A
C1649      C1654   1.407       .  A
C1650      C1651   1.398       .  A
C1650      H1663   1.083       .  S
C1651      C1652   1.403       .  A
C1651      H1664   1.083       .  S
C1652      C1653   1.407       .  A
C1652      C1655   1.486       .  S
C1653      C1654   1.400       .  A
C1653      H1665   1.082       .  S
C1654      H1666   1.083       .  S
C1655      C1656   1.349       .  D
C1655      H1667   1.083       .  S
C1656      C1657   1.492       .  S
C1656      H1668   1.085       .  S
C1657      C1658   1.405       .  A
C1657      C1662   1.409       .  A
C1658      C1659   1.399       .  A
C1658      H1669   1.083       .  S
C1659      C1660   1.405       .  A
C1659      H1670   1.083       .  S
C1660      C1661   1.406       .  A
C1661      C1662   1.398       .  A
C1661      H1671   1.083       .  S
C1662      H1672   1.079       .  S
C1673      C1674   1.404       .  A
C1673      C1678   1.405       .  A
C1674      C1675   1.401       .  A
C1674      H1687   1.083       .  S
C1675      C1676   1.403       .  A
C1675      H1688   1.083       .  S
C1676      C1677   1.405       .  A
C1676      C1679   1.482       .  S
C1677      C1678   1.398       .  A
C1677      H1689   1.083       .  S
C1678      H1690   1.083       .  S
C1679      C1680   1.345       .  D
C1679      H1691   1.087       .  S
C1680      C1681   1.482       .  S
C1680      H1692   1.087       .  S
C1681      C1682   1.403       .  A
C1681      C1686   1.405       .  A
C1682      C1683   1.401       .  A
C1682      H1693   1.083       .  S
C1683      C1684   1.405       .  A
C1683      H1694   1.083       .  S
C1684      C1685   1.405       .  A
C1685      C1686   1.399       .  A
C1685      H1695   1.083       .  S
C1686      H1696   1.083       .  S
C1697      C1698   1.406       .  A
C1697      C1702   1.407       .  A
C1698      C1699   1.403       .  A
C1698      H1711   1.083       .  S
C1699      C1700   1.406       .  A
C1699      H1712   1.083       .  S
C1700      C1701   1.408       .  A
C1700      C1703   1.495       .  S
C1701      C1702   1.397       .  A
C1701      H1713   1.081       .  S
C1702      H1714   1.083       .  S
C1703      C1704   1.351       .  D
C1703      H1715   1.082       .  S
C1704      C1705   1.495       .  S
C1704      H1716   1.084       .  S
C1705      C1706   1.405       .  A
C1705      C1710   1.411       .  A
C1706      C1707   1.397       .  A
C1706      H1717   1.083       .  S
C1707      C1708   1.406       .  A
C1707      H1718   1.083       .  S
C1708      C1709   1.407       .  A
C1709      C1710   1.404       .  A
C1709      H1719   1.083       .  S
C1710      H1720   1.079       .  S
C1721      C1722   1.407       .  A
C1721      C1726   1.406       .  A
C1722      C1723   1.390       .  A
C1722      H1735   1.083       .  S
C1723      C1724   1.397       .  A
C1723      H1736   1.084       .  S
C1724      C1725   1.409       .  A
C1724      C1727   1.478       .  S
C1725      C1726   1.404       .  A
C1725      H1737   1.083       .  S
C1726      H1738   1.083       .  S
C1727      C1728   1.340       .  D
C1727      H1739   1.086       .  S
C1728      C1729   1.480       .  S
C1728      H1740   1.087       .  S
C1729      C1730   1.398       .  A
C1729      C1734   1.409       .  A
C1730      C1731   1.391       .  A
C1730      H1741   1.083       .  S
C1731      C1732   1.407       .  A
C1731      H1742   1.083       .  S
C1732      C1733   1.404       .  A
C1733      C1734   1.401       .  A
C1733      H1743   1.083       .  S
C1734      H1744   1.082       .  S
C1745      C1746   1.404       .  A
C1745      C1750   1.405       .  A
C1746      C1747   1.401       .  A
C1746      H1759   1.083       .  S
C1747      C1748   1.404       .  A
C1747      H1760   1.083       .  S
C1748      C1749   1.404       .  A
C1748      C1751   1.480       .  S
C1749      C1750   1.396       .  A
C1749      H1761   1.083       .  S
C1750      H1762   1.083       .  S
C1751      C1752   1.345       .  D
C1751      H1763   1.087       .  S
C1752      C1753   1.480       .  S
C1752      H1764   1.087       .  S
C1753      C1754   1.402       .  A
C1753      C1758   1.404       .  A
C1754      C1755   1.400       .  A
C1754      H1765   1.083       .  S
C1755      C1756   1.406       .  A
C1755      H1766   1.083       .  S
C1756      C1757   1.406       .  A
C1757      C1758   1.399       .  A
C1757      H1767   1.083       .  S
C1758      H1768   1.083       .  S
C1769      C1770   1.406   1_565  A
C1769      C1774   1.407       .  A
C1770      C1771   1.394   1_545  A
C1770      H1783   1.083       .  S
C1771      C1772   1.402       .  A
C1771      H1784   1.084   1_565  S
C1772      C1773   1.411       .  A
C1772      C1775   1.492       .  S
C1773      C1774   1.406       .  A
C1773      H1785   1.081       .  S
C1774      H1786   1.083       .  S
C1775      C1776   1.348       .  D
C1775      H1787   1.085   1_565  S
C1776      C1777   1.493       .  S
C1776      H1788   1.085       .  S
C1777      C1778   1.404       .  A
C1777      C1782   1.410   1_565  A
C1778      C1779   1.401       .  A
C1778      H1789   1.084       .  S
C1779      C1780   1.408       .  A
C1779      H1790   1.083       .  S
C1780      C1781   1.405   1_565  A
C1781      C1782   1.399       .  A
C1781      H1791   1.083       .  S
C1782      H1792   1.081       .  S
C1793      C1794   1.406       .  A
C1793      C1798   1.404   1_565  A
C1794      C1795   1.402       .  A
C1794      H1807   1.083       .  S
C1795      C1796   1.404       .  A
C1795      H1808   1.083       .  S
C1796      C1797   1.405   1_565  A
C1796      C1799   1.483       .  S
C1797      C1798   1.391       .  A
C1797      H1809   1.082       .  S
C1798      H1810   1.084       .  S
C1799      C1800   1.347       .  D
C1799      H1811   1.086       .  S
C1800      C1801   1.476       .  S
C1800      H1812   1.086   1_565  S
C1801      C1802   1.401   1_565  A
C1801      C1806   1.406       .  A
C1802      C1803   1.393       .  A
C1802      H1813   1.084       .  S
C1803      C1804   1.401   1_545  A
C1803      H1814   1.084       .  S
C1804      C1805   1.403       .  A
C1805      C1806   1.400       .  A
C1805      H1815   1.083       .  S
C1806      H1816   1.082       .  S
C1817      C1818   1.405       .  A
C1817      C1822   1.406       .  A
C1818      C1819   1.397       .  A
C1818      H1831   1.083       .  S
C1819      C1820   1.403       .  A
C1819      H1832   1.083       .  S
C1820      C1821   1.408       .  A
C1820      C1823   1.486       .  S
C1821      C1822   1.398       .  A
C1821      H1833   1.081       .  S
C1822      H1834   1.083       .  S
C1823      C1824   1.347       .  D
C1823      H1835   1.085       .  S
C1824      C1825   1.484       .  S
C1824      H1836   1.084       .  S
C1825      C1826   1.402       .  A
C1825      C1830   1.408       .  A
C1826      C1827   1.397       .  A
C1826      H1837   1.083       .  S
C1827      C1828   1.407       .  A
C1827      H1838   1.083       .  S
C1828      C1829   1.405       .  A
C1829      C1830   1.399       .  A
C1829      H1839   1.083       .  S
C1830      H1840   1.082       .  S
C1841      C1842   1.407   1_565  A
C1841      C1846   1.404       .  A
C1842      C1843   1.393       .  A
C1842      H1855   1.083       .  S
C1843      C1844   1.400   1_545  A
C1843      H1856   1.083       .  S
C1844      C1845   1.409       .  A
C1844      C1847   1.481       .  S
C1845      C1846   1.399       .  A
C1845      H1857   1.082       .  S
C1846      H1858   1.083       .  S
C1847      C1848   1.343       .  D
C1847      H1859   1.085   1_565  S
C1848      C1849   1.481       .  S
C1848      H1860   1.085       .  S
C1849      C1850   1.400       .  A
C1849      C1854   1.409   1_565  A
C1850      C1851   1.393       .  A
C1850      H1861   1.083       .  S
C1851      C1852   1.406       .  A
C1851      H1862   1.083       .  S
C1852      C1853   1.404   1_565  A
C1853      C1854   1.399       .  A
C1853      H1863   1.083       .  S
C1854      H1864   1.082       .  S
C1865      C1866   1.406       .  A
C1865      C1870   1.406       .  A
C1866      C1867   1.402       .  A
C1866      H1879   1.083       .  S
C1867      C1868   1.406       .  A
C1867      H1880   1.083       .  S
C1868      C1869   1.408       .  A
C1868      C1871   1.493       .  S
C1869      C1870   1.397       .  A
C1869      H1881   1.081   1_565  S
C1870      H1882   1.083   1_565  S
C1871      C1872   1.350       .  D
C1871      H1883   1.083       .  S
C1872      C1873   1.493       .  S
C1872      H1884   1.084   1_565  S
C1873      C1874   1.404   1_565  A
C1873      C1878   1.410       .  A
C1874      C1875   1.396       .  A
C1874      H1885   1.083       .  S
C1875      C1876   1.405   1_545  A
C1875      H1886   1.083       .  S
C1876      C1877   1.406       .  A
C1877      C1878   1.403       .  A
C1877      H1887   1.083       .  S
C1878      H1888   1.080       .  S
C1889      C1890   1.406   1_545  A
C1889      C1894   1.407       .  A
C1890      C1891   1.398       .  A
C1890      H1903   1.083       .  S
C1891      C1892   1.405   1_565  A
C1891      H1904   1.083       .  S
C1892      C1893   1.410       .  A
C1892      C1895   1.496   1_545  S
C1893      C1894   1.404       .  A
C1893      H1905   1.080       .  S
C1894      H1906   1.083       .  S
C1895      C1896   1.352   1_565  D
C1895      H1907   1.083       .  S
C1896      C1897   1.497       .  S
C1896      H1908   1.083       .  S
C1897      C1898   1.406       .  A
C1897      C1902   1.409   1_545  A
C1898      C1899   1.402       .  A
C1898      H1909   1.083       .  S
C1899      C1900   1.406       .  A
C1899      H1910   1.083       .  S
C1900      C1901   1.407   1_545  A
C1901      C1902   1.400       .  A
C1901      H1911   1.083       .  S
C1902      H1912   1.080       .  S
C1913      C1914   1.405       .  A
C1913      C1918   1.406       .  A
C1914      C1915   1.397       .  A
C1914      H1927   1.083       .  S
C1915      C1916   1.403       .  A
C1915      H1928   1.084       .  S
C1916      C1917   1.406       .  A
C1916      C1919   1.482       .  S
C1917      C1918   1.395       .  A
C1917      H1929   1.081       .  S
C1918      H1930   1.083       .  S
C1919      C1920   1.346       .  D
C1919      H1931   1.085       .  S
C1920      C1921   1.481       .  S
C1920      H1932   1.085       .  S
C1921      C1922   1.402       .  A
C1921      C1926   1.407       .  A
C1922      C1923   1.396       .  A
C1922      H1933   1.084       .  S
C1923      C1924   1.406       .  A
C1923      H1934   1.083       .  S
C1924      C1925   1.406       .  A
C1925      C1926   1.396       .  A
C1925      H1935   1.083       .  S
C1926      H1936   1.081       .  S
C1937      C1938   1.408       .  A
C1937      C1942   1.406       .  A
C1938      C1939   1.400       .  A
C1938      H1951   1.083       .  S
C1939      C1940   1.403       .  A
C1939      H1952   1.083       .  S
C1940      C1941   1.411       .  A
C1940      C1943   1.496       .  S
C1941      C1942   1.403       .  A
C1941      H1953   1.081       .  S
C1942      H1954   1.083       .  S
C1943      C1944   1.349       .  D
C1943      H1955   1.085       .  S
C1944      C1945   1.492       .  S
C1944      H1956   1.085       .  S
C1945      C1946   1.402       .  A
C1945      C1950   1.411       .  A
C1946      C1947   1.396       .  A
C1946      H1957   1.084       .  S
C1947      C1948   1.406       .  A
C1947      H1958   1.083       .  S
C1948      C1949   1.407       .  A
C1949      C1950   1.408       .  A
C1949      H1959   1.083       .  S
C1950      H1960   1.081       .  S
C1961      C1962   1.406       .  A
C1961      C1966   1.406       .  A
C1962      C1963   1.396       .  A
C1962      H1975   1.083       .  S
C1963      C1964   1.402       .  A
C1963      H1976   1.083       .  S
C1964      C1965   1.409       .  A
C1964      C1967   1.488       .  S
C1965      C1966   1.401       .  A
C1965      H1977   1.081       .  S
C1966      H1978   1.083       .  S
C1967      C1968   1.348       .  D
C1967      H1979   1.085       .  S
C1968      C1969   1.488       .  S
C1968      H1980   1.085       .  S
C1969      C1970   1.402       .  A
C1969      C1974   1.409       .  A
C1970      C1971   1.397       .  A
C1970      H1981   1.084       .  S
C1971      C1972   1.407       .  A
C1971      H1982   1.083       .  S
C1972      C1973   1.406       .  A
C1973      C1974   1.400       .  A
C1973      H1983   1.083       .  S
C1974      H1984   1.081       .  S
C1985      C1986   1.405       .  A
C1985      C1990   1.405   1_545  A
C1986      C1987   1.397       .  A
C1986      H1999   1.083       .  S
C1987      C1988   1.403       .  A
C1987      H2000   1.084       .  S
C1988      C1989   1.406   1_545  A
C1988      C1991   1.481       .  S
C1989      C1990   1.394       .  A
C1989      H2001   1.081       .  S
C1990      H2002   1.083       .  S
C1991      C1992   1.347   1_545  D
C1991      H2003   1.086       .  S
C1992      C1993   1.479       .  S
C1992      H2004   1.085       .  S
C1993      C1994   1.403       .  A
C1993      C1998   1.405   1_565  A
C1994      C1995   1.397       .  A
C1994      H2005   1.084       .  S
C1995      C1996   1.405       .  A
C1995      H2006   1.083       .  S
C1996      C1997   1.406   1_565  A
C1997      C1998   1.394       .  A
C1997      H2007   1.083       .  S
C1998      H2008   1.082       .  S
C2009      C2010   1.407       .  A
C2009      C2014   1.407   1_545  A
C2010      C2011   1.403       .  A
C2010      H2023   1.083       .  S
C2011      C2012   1.406       .  A
C2011      H2024   1.083       .  S
C2012      C2013   1.409   1_545  A
C2012      C2015   1.497       .  S
C2013      C2014   1.398       .  A
C2013      H2025   1.080       .  S
C2014      H2026   1.083       .  S
C2015      C2016   1.351   1_545  D
C2015      H2027   1.083       .  S
C2016      C2017   1.495       .  S
C2016      H2028   1.083       .  S
C2017      C2018   1.404       .  A
C2017      C2022   1.411   1_565  A
C2018      C2019   1.395       .  A
C2018      H2029   1.083       .  S
C2019      C2020   1.405       .  A
C2019      H2030   1.083       .  S
C2020      C2021   1.408   1_565  A
C2021      C2022   1.406       .  A
C2021      H2031   1.083       .  S
C2022      H2032   1.080       .  S
C2033      C2034   1.405   1_565  A
C2033      C2038   1.407       .  A
C2034      C2035   1.398       .  A
C2034      H2047   1.083       .  S
C2035      C2036   1.405   1_544  A
C2035      H2048   1.083       .  S
C2036      C2037   1.410       .  A
C2036      C2039   1.497       .  S
C2037      C2038   1.404   1_556  A
C2037      H2049   1.080       .  S
C2038      H2050   1.083       .  S
C2039      C2040   1.353       .  D
C2039      H2051   1.083   1_565  S
C2040      C2041   1.499       .  S
C2040      H2052   1.083       .  S
C2041      C2042   1.408       .  A
C2041      C2046   1.409       .  A
C2042      C2043   1.404       .  A
C2042      H2053   1.083       .  S
C2043      C2044   1.406       .  A
C2043      H2054   1.083       .  S
C2044      C2045   1.407       .  A
C2045      C2046   1.398       .  A
C2045      H2055   1.083   1_565  S
C2046      H2056   1.080   1_565  S
C2057      C2058   1.405       .  A
C2057      C2062   1.406   1_545  A
C2058      C2059   1.401       .  A
C2058      H2071   1.083       .  S
C2059      C2060   1.404       .  A
C2059      H2072   1.083       .  S
C2060      C2061   1.404   1_545  A
C2060      C2063   1.480       .  S
C2061      C2062   1.393       .  A
C2061      H2073   1.082       .  S
C2062      H2074   1.083       .  S
C2063      C2064   1.347       .  D
C2063      H2075   1.087       .  S
C2064      C2065   1.481       .  S
C2064      H2076   1.086       .  S
C2065      C2066   1.405       .  A
C2065      C2070   1.403   1_545  A
C2066      C2067   1.402       .  A
C2066      H2077   1.083       .  S
C2067      C2068   1.405       .  A
C2067      H2078   1.083       .  S
C2068      C2069   1.406   1_545  A
C2069      C2070   1.392       .  A
C2069      H2079   1.083       .  S
C2070      H2080   1.082       .  S
C2081      C2082   1.405       .  A
C2081      C2086   1.408   1_556  A
C2082      C2083   1.398   1_556  A
C2082      H2095   1.083       .  S
C2083      C2084   1.405       .  A
C2083      H2096   1.083       .  S
C2084      C2085   1.409       .  A
C2084      C2087   1.494       .  S
C2085      C2086   1.403       .  A
C2085      H2097   1.081       .  S
C2086      H2098   1.083       .  S
C2087      C2088   1.353       .  D
C2087      H2099   1.083       .  S
C2088      C2089   1.497       .  S
C2088      H2100   1.084       .  S
C2089      C2090   1.408       .  A
C2089      C2094   1.408       .  A
C2090      C2091   1.404       .  A
C2090      H2101   1.083       .  S
C2091      C2092   1.405       .  A
C2091      H2102   1.083       .  S
C2092      C2093   1.407       .  A
C2093      C2094   1.397       .  A
C2093      H2103   1.083       .  S
C2094      H2104   1.080       .  S
C2105      C2106   1.406       .  A
C2105      C2110   1.407       .  A
C2106      C2107   1.403       .  A
C2106      H2119   1.083       .  S
C2107      C2108   1.405       .  A
C2107      H2120   1.083       .  S
C2108      C2109   1.403       .  A
C2108      C2111   1.483       .  S
C2109      C2110   1.393       .  A
C2109      H2121   1.082       .  S
C2110      H2122   1.083       .  S
C2111      C2112   1.349       .  D
C2111      H2123   1.086       .  S
C2112      C2113   1.484       .  S
C2112      H2124   1.087       .  S
C2113      C2114   1.407       .  A
C2113      C2118   1.403       .  A
C2114      C2115   1.404       .  A
C2114      H2125   1.083       .  S
C2115      C2116   1.404       .  A
C2115      H2126   1.083       .  S
C2116      C2117   1.406       .  A
C2117      C2118   1.392       .  A
C2117      H2127   1.084       .  S
C2118      H2128   1.082       .  S
C2129      C2130   1.404       .  A
C2129      C2134   1.406       .  A
C2130      C2131   1.398       .  A
C2130      H2143   1.083       .  S
C2131      C2132   1.405       .  A
C2131      H2144   1.083       .  S
C2132      C2133   1.408       .  A
C2132      C2135   1.489       .  S
C2133      C2134   1.398       .  A
C2133      H2145   1.080       .  S
C2134      H2146   1.083       .  S
C2135      C2136   1.349       .  D
C2135      H2147   1.085       .  S
C2136      C2137   1.487       .  S
C2136      H2148   1.084       .  S
C2137      C2138   1.403       .  A
C2137      C2142   1.408       .  A
C2138      C2139   1.398       .  A
C2138      H2149   1.083       .  S
C2139      C2140   1.407       .  A
C2139      H2150   1.083       .  S
C2140      C2141   1.406       .  A
C2141      C2142   1.398       .  A
C2141      H2151   1.083       .  S
C2142      H2152   1.082       .  S
C2153      C2154   1.405       .  A
C2153      C2158   1.405       .  A
C2154      C2155   1.397       .  A
C2154      H2167   1.083       .  S
C2155      C2156   1.401       .  A
C2155      H2168   1.083       .  S
C2156      C2157   1.406       .  A
C2156      C2159   1.479       .  S
C2157      C2158   1.401       .  A
C2157      H2169   1.083       .  S
C2158      H2170   1.083       .  S
C2159      C2160   1.343       .  D
C2159      H2171   1.087       .  S
C2160      C2161   1.482       .  S
C2160      H2172   1.087       .  S
C2161      C2162   1.402       .  A
C2161      C2166   1.406       .  A
C2162      C2163   1.399       .  A
C2162      H2173   1.083       .  S
C2163      C2164   1.407       .  A
C2163      H2174   1.083       .  S
C2164      C2165   1.405       .  A
C2165      C2166   1.401       .  A
C2165      H2175   1.083       .  S
C2166      H2176   1.083       .  S
C2177      C2178   1.405       .  A
C2177      C2182   1.407       .  A
C2178      C2179   1.397       .  A
C2178      H2191   1.083       .  S
C2179      C2180   1.403       .  A
C2179      H2192   1.084       .  S
C2180      C2181   1.407       .  A
C2180      C2183   1.484       .  S
C2181      C2182   1.397       .  A
C2181      H2193   1.081       .  S
C2182      H2194   1.083       .  S
C2183      C2184   1.348   1_556  D
C2183      H2195   1.085   1_556  S
C2184      C2185   1.486       .  S
C2184      H2196   1.085   1_554  S
C2185      C2186   1.404       .  A
C2185      C2190   1.407       .  A
C2186      C2187   1.399       .  A
C2186      H2197   1.084       .  S
C2187      C2188   1.406       .  A
C2187      H2198   1.083       .  S
C2188      C2189   1.406       .  A
C2189      C2190   1.395       .  A
C2189      H2199   1.083       .  S
C2190      H2200   1.081       .  S
C2201      C2202   1.406   1_655  A
C2201      C2206   1.407       .  A
C2202      C2203   1.398       .  A
C2202      H2215   1.083   1_455  S
C2203      C2204   1.405   1_554  A
C2203      H2216   1.084       .  S
C2204      C2205   1.410       .  A
C2204      C2207   1.495       .  S
C2205      C2206   1.403   1_456  A
C2205      H2217   1.080       .  S
C2206      H2218   1.083       .  S
C2207      C2208   1.352       .  D
C2207      H2219   1.083       .  S
C2208      C2209   1.497       .  S
C2208      H2220   1.084       .  S
C2209      C2210   1.407       .  A
C2209      C2214   1.409       .  A
C2210      C2211   1.402       .  A
C2210      H2221   1.083       .  S
C2211      C2212   1.405       .  A
C2211      H2222   1.083       .  S
C2212      C2213   1.407       .  A
C2213      C2214   1.399       .  A
C2213      H2223   1.083       .  S
C2214      H2224   1.080       .  S
C2225      C2226   1.407       .  A
C2225      C2230   1.407       .  A
C2226      C2227   1.395       .  A
C2226      H2239   1.083       .  S
C2227      C2228   1.401       .  A
C2227      H2240   1.084       .  S
C2228      C2229   1.410       .  A
C2228      C2231   1.489       .  S
C2229      C2230   1.406       .  A
C2229      H2241   1.081       .  S
C2230      H2242   1.083       .  S
C2231      C2232   1.349       .  D
C2231      H2243   1.083       .  S
C2232      C2233   1.496       .  S
C2232      H2244   1.086       .  S
C2233      C2234   1.405       .  A
C2233      C2238   1.411       .  A
C2234      C2235   1.401       .  A
C2234      H2245   1.083       .  S
C2235      C2236   1.407       .  A
C2235      H2246   1.083       .  S
C2236      C2237   1.405       .  A
C2237      C2238   1.400       .  A
C2237      H2247   1.083       .  S
C2238      H2248   1.080       .  S
C2249      C2250   1.402       .  A
C2249      C2254   1.405       .  A
C2250      C2251   1.398       .  A
C2250      H2263   1.083       .  S
C2251      C2252   1.403       .  A
C2251      H2264   1.083       .  S
C2252      C2253   1.405       .  A
C2252      C2255   1.478       .  S
C2253      C2254   1.398       .  A
C2253      H2265   1.083       .  S
C2254      H2266   1.083       .  S
C2255      C2256   1.344       .  D
C2255      H2267   1.087       .  S
C2256      C2257   1.478       .  S
C2256      H2268   1.087       .  S
C2257      C2258   1.403       .  A
C2257      C2262   1.404       .  A
C2258      C2259   1.401       .  A
C2258      H2269   1.083       .  S
C2259      C2260   1.405       .  A
C2259      H2270   1.083       .  S
C2260      C2261   1.404       .  A
C2261      C2262   1.395       .  A
C2261      H2271   1.083       .  S
C2262      H2272   1.083       .  S
C2273      C2274   1.407       .  A
C2273      C2278   1.407       .  A
C2274      C2275   1.395       .  A
C2274      H2287   1.083       .  S
C2275      C2276   1.402       .  A
C2275      H2288   1.084       .  S
C2276      C2277   1.412       .  A
C2276      C2279   1.494       .  S
C2277      C2278   1.407       .  A
C2277      H2289   1.081       .  S
C2278      H2290   1.083       .  S
C2279      C2280   1.349       .  D
C2279      H2291   1.084       .  S
C2280      C2281   1.496       .  S
C2280      H2292   1.085       .  S
C2281      C2282   1.404       .  A
C2281      C2286   1.411       .  A
C2282      C2283   1.400   1_455  A
C2282      H2293   1.083       .  S
C2283      C2284   1.407       .  A
C2283      H2294   1.083       .  S
C2284      C2285   1.407   1_655  A
C2285      C2286   1.402       .  A
C2285      H2295   1.083       .  S
C2286      H2296   1.080       .  S
C2297      C2298   1.406       .  A
C2297      C2302   1.407       .  A
C2298      C2299   1.397       .  A
C2298      H2311   1.083       .  S
C2299      C2300   1.403       .  A
C2299      H2312   1.083       .  S
C2300      C2301   1.409       .  A
C2300      C2303   1.489       .  S
C2301      C2302   1.401       .  A
C2301      H2313   1.081       .  S
C2302      H2314   1.083       .  S
C2303      C2304   1.349       .  D
C2303      H2315   1.085       .  S
C2304      C2305   1.488       .  S
C2304      H2316   1.084       .  S
C2305      C2306   1.403       .  A
C2305      C2310   1.408       .  A
C2306      C2307   1.399       .  A
C2306      H2317   1.083       .  S
C2307      C2308   1.407       .  A
C2307      H2318   1.083       .  S
C2308      C2309   1.406       .  A
C2309      C2310   1.399       .  A
C2309      H2319   1.083       .  S
C2310      H2320   1.081       .  S
C2321      C2322   1.406       .  A
C2321      C2326   1.406       .  A
C2322      C2323   1.396       .  A
C2322      H2335   1.083       .  S
C2323      C2324   1.400       .  A
C2323      H2336   1.083       .  S
C2324      C2325   1.407       .  A
C2324      C2327   1.481       .  S
C2325      C2326   1.403       .  A
C2325      H2337   1.083       .  S
C2326      H2338   1.083       .  S
C2327      C2328   1.343       .  D
C2327      H2339   1.087       .  S
C2328      C2329   1.481       .  S
C2328      H2340   1.087       .  S
C2329      C2330   1.400       .  A
C2329      C2334   1.407       .  A
C2330      C2331   1.396       .  A
C2330      H2341   1.083       .  S
C2331      C2332   1.405       .  A
C2331      H2342   1.084       .  S
C2332      C2333   1.405       .  A
C2333      C2334   1.403       .  A
C2333      H2343   1.083       .  S
C2334      H2344   1.083       .  S
C2345      C2346   1.405       .  A
C2345      C2350   1.406       .  A
C2346      C2347   1.398       .  A
C2346      H2359   1.083       .  S
C2347      C2348   1.404       .  A
C2347      H2360   1.084       .  S
C2348      C2349   1.406       .  A
C2348      C2351   1.482       .  S
C2349      C2350   1.394       .  A
C2349      H2361   1.081       .  S
C2350      H2362   1.083       .  S
C2351      C2352   1.348   1_455  D
C2351      H2363   1.085       .  S
C2352      C2353   1.482       .  S
C2352      H2364   1.085       .  S
C2353      C2354   1.404       .  A
C2353      C2358   1.406       .  A
C2354      C2355   1.398       .  A
C2354      H2365   1.084       .  S
C2355      C2356   1.405       .  A
C2355      H2366   1.083       .  S
C2356      C2357   1.406       .  A
C2357      C2358   1.393       .  A
C2357      H2367   1.083       .  S
C2358      H2368   1.081   1_655  S
C2369      C2370   1.406       .  A
C2369      C2374   1.408       .  A
C2370      C2371   1.403       .  A
C2370      H2383   1.083       .  S
C2371      C2372   1.406       .  A
C2371      H2384   1.083       .  S
C2372      C2373   1.408       .  A
C2372      C2375   1.494       .  S
C2373      C2374   1.399       .  A
C2373      H2385   1.081       .  S
C2374      H2386   1.083       .  S
C2375      C2376   1.351       .  D
C2375      H2387   1.084       .  S
C2376      C2377   1.493       .  S
C2376      H2388   1.084       .  S
C2377      C2378   1.405       .  A
C2377      C2382   1.409   1_655  A
C2378      C2379   1.399   1_655  A
C2378      H2389   1.083       .  S
C2379      C2380   1.406       .  A
C2379      H2390   1.083       .  S
C2380      C2381   1.408       .  A
C2381      C2382   1.402       .  A
C2381      H2391   1.083       .  S
C2382      H2392   1.081       .  S
C2393      C2394   1.405       .  A
C2393      C2398   1.406       .  A
C2394      C2395   1.395       .  A
C2394      H2407   1.083       .  S
C2395      C2396   1.402       .  A
C2395      H2408   1.084       .  S
C2396      C2397   1.411       .  A
C2396      C2399   1.491       .  S
C2397      C2398   1.406       .  A
C2397      H2409   1.081       .  S
C2398      H2410   1.083       .  S
C2399      C2400   1.349       .  D
C2399      H2411   1.085       .  S
C2400      C2401   1.493       .  S
C2400      H2412   1.085       .  S
C2401      C2402   1.403       .  A
C2401      C2406   1.410       .  A
C2402      C2403   1.401       .  A
C2402      H2413   1.083       .  S
C2403      C2404   1.408       .  A
C2403      H2414   1.083       .  S
C2404      C2405   1.405       .  A
C2405      C2406   1.400       .  A
C2405      H2415   1.083       .  S
C2406      H2416   1.081       .  S
C2417      C2418   1.404       .  A
C2417      C2422   1.406       .  A
C2418      C2419   1.404       .  A
C2418      H2431   1.083       .  S
C2419      C2420   1.407       .  A
C2419      H2432   1.083       .  S
C2420      C2421   1.404       .  A
C2420      C2423   1.486       .  S
C2421      C2422   1.392       .  A
C2421      H2433   1.082       .  S
C2422      H2434   1.083       .  S
C2423      C2424   1.350       .  D
C2423      H2435   1.086       .  S
C2424      C2425   1.485       .  S
C2424      H2436   1.086       .  S
C2425      C2426   1.406       .  A
C2425      C2430   1.404       .  A
C2426      C2427   1.403       .  A
C2426      H2437   1.083       .  S
C2427      C2428   1.405       .  A
C2427      H2438   1.083       .  S
C2428      C2429   1.407       .  A
C2429      C2430   1.393       .  A
C2429      H2439   1.083       .  S
C2430      H2440   1.082       .  S
C2441      C2442   1.405       .  A
C2441      C2446   1.405       .  A
C2442      C2443   1.397       .  A
C2442      H2455   1.084       .  S
C2443      C2444   1.401       .  A
C2443      H2456   1.083       .  S
C2444      C2445   1.407       .  A
C2444      C2447   1.483       .  S
C2445      C2446   1.402       .  A
C2445      H2457   1.083       .  S
C2446      H2458   1.083       .  S
C2447      C2448   1.343       .  D
C2447      H2459   1.087       .  S
C2448      C2449   1.481       .  S
C2448      H2460   1.087       .  S
C2449      C2450   1.400       .  A
C2449      C2454   1.408       .  A
C2450      C2451   1.396       .  A
C2450      H2461   1.083       .  S
C2451      C2452   1.405       .  A
C2451      H2462   1.084       .  S
C2452      C2453   1.405       .  A
C2453      C2454   1.404       .  A
C2453      H2463   1.083       .  S
C2454      H2464   1.083       .  S
C2465      C2466   1.405       .  A
C2465      C2470   1.406       .  A
C2466      C2467   1.395       .  A
C2466      H2479   1.083       .  S
C2467      C2468   1.403       .  A
C2467      H2480   1.084       .  S
C2468      C2469   1.408       .  A
C2468      C2471   1.485   1_655  S
C2469      C2470   1.399       .  A
C2469      H2481   1.081   1_655  S
C2470      H2482   1.083       .  S
C2471      C2472   1.347       .  D
C2471      H2483   1.085   1_455  S
C2472      C2473   1.485       .  S
C2472      H2484   1.084       .  S
C2473      C2474   1.403       .  A
C2473      C2478   1.407       .  A
C2474      C2475   1.399       .  A
C2474      H2485   1.083       .  S
C2475      C2476   1.406       .  A
C2475      H2486   1.083       .  S
C2476      C2477   1.406       .  A
C2477      C2478   1.396       .  A
C2477      H2487   1.083       .  S
C2478      H2488   1.081       .  S
C2489      C2490   1.406       .  A
C2489      C2494   1.408       .  A
C2490      C2491   1.399   1_455  A
C2490      H2503   1.083       .  S
C2491      C2492   1.406       .  A
C2491      H2504   1.083       .  S
C2492      C2493   1.410   1_655  A
C2492      C2495   1.497       .  S
C2493      C2494   1.404       .  A
C2493      H2505   1.080       .  S
C2494      H2506   1.083       .  S
C2495      C2496   1.354       .  D
C2495      H2507   1.082       .  S
C2496      C2497   1.499       .  S
C2496      H2508   1.083       .  S
C2497      C2498   1.408       .  A
C2497      C2502   1.409       .  A
C2498      C2499   1.404       .  A
C2498      H2509   1.083       .  S
C2499      C2500   1.405       .  A
C2499      H2510   1.083       .  S
C2500      C2501   1.407       .  A
C2501      C2502   1.397       .  A
C2501      H2511   1.083       .  S
C2502      H2512   1.079       .  S
C2513      C2514   1.405       .  A
C2513      C2518   1.407       .  A
C2514      C2515   1.404       .  A
C2514      H2527   1.083       .  S
C2515      C2516   1.406       .  A
C2515      H2528   1.083       .  S
C2516      C2517   1.403       .  A
C2516      C2519   1.482       .  S
C2517      C2518   1.391       .  A
C2517      H2529   1.082       .  S
C2518      H2530   1.083       .  S
C2519      C2520   1.349       .  D
C2519      H2531   1.086       .  S
C2520      C2521   1.482       .  S
C2520      H2532   1.087       .  S
C2521      C2522   1.406       .  A
C2521      C2526   1.403       .  A
C2522      C2523   1.403       .  A
C2522      H2533   1.083       .  S
C2523      C2524   1.405       .  A
C2523      H2534   1.083       .  S
C2524      C2525   1.406       .  A
C2525      C2526   1.392       .  A
C2525      H2535   1.083       .  S
C2526      H2536   1.082       .  S
C2537      C2538   1.405       .  A
C2537      C2542   1.407       .  A
C2538      C2539   1.397       .  A
C2538      H2551   1.083       .  S
C2539      C2540   1.403       .  A
C2539      H2552   1.083       .  S
C2540      C2541   1.408       .  A
C2540      C2543   1.488       .  S
C2541      C2542   1.402       .  A
C2541      H2553   1.082       .  S
C2542      H2554   1.083       .  S
C2543      C2544   1.349       .  D
C2543      H2555   1.083       .  S
C2544      C2545   1.492       .  S
C2544      H2556   1.085       .  S
C2545      C2546   1.404       .  A
C2545      C2550   1.410       .  A
C2546      C2547   1.399       .  A
C2546      H2557   1.083       .  S
C2547      C2548   1.406       .  A
C2547      H2558   1.083       .  S
C2548      C2549   1.406       .  A
C2549      C2550   1.399       .  A
C2549      H2559   1.083       .  S
C2550      H2560   1.080       .  S
C2561      C2562   1.406       .  A
C2561      C2566   1.406       .  A
C2562      C2563   1.397       .  A
C2562      H2575   1.083       .  S
C2563      C2564   1.400       .  A
C2563      H2576   1.083       .  S
C2564      C2565   1.407       .  A
C2564      C2567   1.483       .  S
C2565      C2566   1.404       .  A
C2565      H2577   1.083       .  S
C2566      H2578   1.083       .  S
C2567      C2568   1.343       .  D
C2567      H2579   1.087       .  S
C2568      C2569   1.483       .  S
C2568      H2580   1.087       .  S
C2569      C2570   1.401       .  A
C2569      C2574   1.407       .  A
C2570      C2571   1.397       .  A
C2570      H2581   1.083       .  S
C2571      C2572   1.406       .  A
C2571      H2582   1.083       .  S
C2572      C2573   1.406       .  A
C2573      C2574   1.403       .  A
C2573      H2583   1.083       .  S
C2574      H2584   1.083       .  S
C2585      C2586   1.405       .  A
C2585      C2590   1.406       .  A
C2586      C2587   1.398       .  A
C2586      H2599   1.083       .  S
C2587      C2588   1.403       .  A
C2587      H2600   1.084       .  S
C2588      C2589   1.405       .  A
C2588      C2591   1.481       .  S
C2589      C2590   1.394       .  A
C2589      H2601   1.082       .  S
C2590      H2602   1.083       .  S
C2591      C2592   1.348       .  D
C2591      H2603   1.084       .  S
C2592      C2593   1.485       .  S
C2592      H2604   1.086       .  S
C2593      C2594   1.405       .  A
C2593      C2598   1.407       .  A
C2594      C2595   1.398       .  A
C2594      H2605   1.084       .  S
C2595      C2596   1.404       .  A
C2595      H2606   1.083       .  S
C2596      C2597   1.406       .  A
C2597      C2598   1.394       .  A
C2597      H2607   1.083       .  S
C2598      H2608   1.080       .  S
C2609      C2610   1.406       .  A
C2609      C2614   1.407       .  A
C2610      C2611   1.403       .  A
C2610      H2623   1.083       .  S
C2611      C2612   1.406       .  A
C2611      H2624   1.083       .  S
C2612      C2613   1.407       .  A
C2612      C2615   1.493       .  S
C2613      C2614   1.398       .  A
C2613      H2625   1.082       .  S
C2614      H2626   1.083       .  S
C2615      C2616   1.350       .  D
C2615      H2627   1.085       .  S
C2616      C2617   1.491       .  S
C2616      H2628   1.084       .  S
C2617      C2618   1.404   1_556  A
C2617      C2622   1.409       .  A
C2618      C2619   1.398       .  A
C2618      H2629   1.083       .  S
C2619      C2620   1.406       .  A
C2619      H2630   1.083       .  S
C2620      C2621   1.408       .  A
C2621      C2622   1.404   1_554  A
C2621      H2631   1.083   1_554  S
C2622      H2632   1.082       .  S
C2633      C2634   1.406       .  A
C2633      C2638   1.408       .  A
C2634      C2635   1.397       .  A
C2634      H2647   1.083       .  S
C2635      C2636   1.404       .  A
C2635      H2648   1.083       .  S
C2636      C2637   1.411       .  A
C2636      C2639   1.497       .  S
C2637      C2638   1.407       .  A
C2637      H2649   1.080       .  S
C2638      H2650   1.083       .  S
C2639      C2640   1.353       .  D
C2639      H2651   1.082       .  S
C2640      C2641   1.501       .  S
C2640      H2652   1.083       .  S
C2641      C2642   1.408       .  A
C2641      C2646   1.410       .  A
C2642      C2643   1.404       .  A
C2642      H2653   1.083       .  S
C2643      C2644   1.406       .  A
C2643      H2654   1.083       .  S
C2644      C2645   1.407       .  A
C2645      C2646   1.399       .  A
C2645      H2655   1.083       .  S
C2646      H2656   1.079       .  S
C2657      C2658   1.405       .  A
C2657      C2662   1.405       .  A
C2658      C2659   1.398       .  A
C2658      H2671   1.083       .  S
C2659      C2660   1.401       .  A
C2659      H2672   1.083       .  S
C2660      C2661   1.405       .  A
C2660      C2663   1.479       .  S
C2661      C2662   1.400       .  A
C2661      H2673   1.083       .  S
C2662      H2674   1.083       .  S
C2663      C2664   1.342       .  D
C2663      H2675   1.087       .  S
C2664      C2665   1.477       .  S
C2664      H2676   1.087       .  S
C2665      C2666   1.400       .  A
C2665      C2670   1.405       .  A
C2666      C2667   1.396       .  A
C2666      H2677   1.083       .  S
C2667      C2668   1.405       .  A
C2667      H2678   1.083       .  S
C2668      C2669   1.406       .  A
C2669      C2670   1.401       .  A
C2669      H2679   1.083       .  S
C2670      H2680   1.083       .  S
C2681      C2682   1.406       .  A
C2681      C2686   1.406       .  A
C2682      C2683   1.398       .  A
C2682      H2695   1.083       .  S
C2683      C2684   1.404       .  A
C2683      H2696   1.083       .  S
C2684      C2685   1.407       .  A
C2684      C2687   1.485       .  S
C2685      C2686   1.396       .  A
C2685      H2697   1.081       .  S
C2686      H2698   1.083       .  S
C2687      C2688   1.348       .  D
C2687      H2699   1.085   1_554  S
C2688      C2689   1.484   1_554  S
C2688      H2700   1.085       .  S
C2689      C2690   1.403       .  A
C2689      C2694   1.407       .  A
C2690      C2691   1.398       .  A
C2690      H2701   1.084       .  S
C2691      C2692   1.406       .  A
C2691      H2702   1.083       .  S
C2692      C2693   1.406       .  A
C2693      C2694   1.397       .  A
C2693      H2703   1.083       .  S
C2694      H2704   1.081       .  S
C2705      C2706   1.408   1_556  A
C2705      C2710   1.405       .  A
C2706      C2707   1.400       .  A
C2706      H2719   1.083       .  S
C2707      C2708   1.404       .  A
C2707      H2720   1.084       .  S
C2708      C2709   1.412       .  A
C2708      C2711   1.496       .  S
C2709      C2710   1.401   1_554  A
C2709      H2721   1.080       .  S
C2710      H2722   1.083       .  S
C2711      C2712   1.349       .  D
C2711      H2723   1.085       .  S
C2712      C2713   1.492       .  S
C2712      H2724   1.084       .  S
C2713      C2714   1.401       .  A
C2713      C2718   1.412       .  A
C2714      C2715   1.393       .  A
C2714      H2725   1.084       .  S
C2715      C2716   1.407       .  A
C2715      H2726   1.083       .  S
C2716      C2717   1.408       .  A
C2717      C2718   1.408       .  A
C2717      H2727   1.083       .  S
C2718      H2728   1.081       .  S
C2729      C2730   1.406       .  A
C2729      C2734   1.407       .  A
C2730      C2731   1.396       .  A
C2730      H2743   1.083       .  S
C2731      C2732   1.402       .  A
C2731      H2744   1.084       .  S
C2732      C2733   1.410       .  A
C2732      C2735   1.490       .  S
C2733      C2734   1.405       .  A
C2733      H2745   1.081       .  S
C2734      H2746   1.083       .  S
C2735      C2736   1.349       .  D
C2735      H2747   1.084       .  S
C2736      C2737   1.494       .  S
C2736      H2748   1.085       .  S
C2737      C2738   1.404       .  A
C2737      C2742   1.410       .  A
C2738      C2739   1.400       .  A
C2738      H2749   1.083       .  S
C2739      C2740   1.407       .  A
C2739      H2750   1.083       .  S
C2740      C2741   1.406       .  A
C2741      C2742   1.400       .  A
C2741      H2751   1.083       .  S
C2742      H2752   1.080       .  S
C2753      C2754   1.406       .  A
C2753      C2758   1.407       .  A
C2754      C2755   1.398       .  A
C2754      H2767   1.083       .  S
C2755      C2756   1.403       .  A
C2755      H2768   1.084       .  S
C2756      C2757   1.408       .  A
C2756      C2759   1.489       .  S
C2757      C2758   1.400       .  A
C2757      H2769   1.081       .  S
C2758      H2770   1.083       .  S
C2759      C2760   1.349       .  D
C2759      H2771   1.083       .  S
C2760      C2761   1.493       .  S
C2760      H2772   1.085       .  S
C2761      C2762   1.405       .  A
C2761      C2766   1.410       .  A
C2762      C2763   1.399       .  A
C2762      H2773   1.084       .  S
C2763      C2764   1.406       .  A
C2763      H2774   1.083       .  S
C2764      C2765   1.406       .  A
C2765      C2766   1.399       .  A
C2765      H2775   1.083       .  S
C2766      H2776   1.080       .  S
C2777      C2778   1.405       .  A
C2777      C2782   1.406       .  A
C2778      C2779   1.400       .  A
C2778      H2791   1.083       .  S
C2779      C2780   1.402       .  A
C2779      H2792   1.083       .  S
C2780      C2781   1.404       .  A
C2780      C2783   1.480       .  S
C2781      C2782   1.398       .  A
C2781      H2793   1.083       .  S
C2782      H2794   1.083       .  S
C2783      C2784   1.345       .  D
C2783      H2795   1.087       .  S
C2784      C2785   1.481       .  S
C2784      H2796   1.087       .  S
C2785      C2786   1.403       .  A
C2785      C2790   1.404       .  A
C2786      C2787   1.401       .  A
C2786      H2797   1.083       .  S
C2787      C2788   1.405       .  A
C2787      H2798   1.083       .  S
C2788      C2789   1.406       .  A
C2789      C2790   1.398       .  A
C2789      H2799   1.083       .  S
C2790      H2800   1.083       .  S
C2801      C2802   1.405       .  A
C2801      C2806   1.406       .  A
C2802      C2803   1.398       .  A
C2802      H2815   1.083       .  S
C2803      C2804   1.403       .  A
C2803      H2816   1.084       .  S
C2804      C2805   1.406       .  A
C2804      C2807   1.481       .  S
C2805      C2806   1.394       .  A
C2805      H2817   1.081       .  S
C2806      H2818   1.083       .  S
C2807      C2808   1.347       .  D
C2807      H2819   1.085       .  S
C2808      C2809   1.481       .  S
C2808      H2820   1.085       .  S
C2809      C2810   1.403       .  A
C2809      C2814   1.405       .  A
C2810      C2811   1.398       .  A
C2810      H2821   1.084       .  S
C2811      C2812   1.405       .  A
C2811      H2822   1.083       .  S
C2812      C2813   1.406       .  A
C2813      C2814   1.394       .  A
C2813      H2823   1.083       .  S
C2814      H2824   1.081       .  S
C2825      C2826   1.405       .  A
C2825      C2830   1.407       .  A
C2826      C2827   1.397       .  A
C2826      H2839   1.083       .  S
C2827      C2828   1.404       .  A
C2827      H2840   1.083       .  S
C2828      C2829   1.408       .  A
C2828      C2831   1.489       .  S
C2829      C2830   1.401       .  A
C2829      H2841   1.081       .  S
C2830      H2842   1.083       .  S
C2831      C2832   1.350       .  D
C2831      H2843   1.084       .  S
C2832      C2833   1.491       .  S
C2832      H2844   1.084       .  S
C2833      C2834   1.405       .  A
C2833      C2838   1.407       .  A
C2834      C2835   1.402       .  A
C2834      H2845   1.083       .  S
C2835      C2836   1.406       .  A
C2835      H2846   1.083       .  S
C2836      C2837   1.407       .  A
C2837      C2838   1.397       .  A
C2837      H2847   1.083       .  S
C2838      H2848   1.081       .  S
C2849      C2850   1.407       .  A
C2849      C2854   1.407       .  A
C2850      C2851   1.397       .  A
C2850      H2863   1.083       .  S
C2851      C2852   1.403       .  A
C2851      H2864   1.084       .  S
C2852      C2853   1.411       .  A
C2852      C2855   1.494       .  S
C2853      C2854   1.405       .  A
C2853      H2865   1.081       .  S
C2854      H2866   1.083       .  S
C2855      C2856   1.350       .  D
C2855      H2867   1.083       .  S
C2856      C2857   1.496       .  S
C2856      H2868   1.085       .  S
C2857      C2858   1.404       .  A
C2857      C2862   1.411       .  A
C2858      C2859   1.399       .  A
C2858      H2869   1.083       .  S
C2859      C2860   1.407       .  A
C2859      H2870   1.083       .  S
C2860      C2861   1.406       .  A
C2861      C2862   1.402       .  A
C2861      H2871   1.083       .  S
C2862      H2872   1.080       .  S
C2873      C2874   1.405       .  A
C2873      C2878   1.402       .  A
C2874      C2875   1.393       .  A
C2874      H2887   1.084       .  S
C2875      C2876   1.399       .  A
C2875      H2888   1.084       .  S
C2876      C2877   1.409       .  A
C2876      C2879   1.479       .  S
C2877      C2878   1.402       .  A
C2877      H2889   1.083       .  S
C2878      H2890   1.083       .  S
C2879      C2880   1.342       .  D
C2879      H2891   1.086       .  S
C2880      C2881   1.482       .  S
C2880      H2892   1.087       .  S
C2881      C2882   1.399       .  A
C2881      C2886   1.408       .  A
C2882      C2883   1.392       .  A
C2882      H2893   1.084       .  S
C2883      C2884   1.407       .  A
C2883      H2894   1.083       .  S
C2884      C2885   1.406       .  A
C2885      C2886   1.402       .  A
C2885      H2895   1.083       .  S
C2886      H2896   1.082       .  S
C2897      C2898   1.406       .  A
C2897      C2902   1.405       .  A
C2898      C2899   1.397       .  A
C2898      H2911   1.083       .  S
C2899      C2900   1.401       .  A
C2899      H2912   1.083       .  S
C2900      C2901   1.406       .  A
C2900      C2903   1.480       .  S
C2901      C2902   1.401       .  A
C2901      H2913   1.083       .  S
C2902      H2914   1.083       .  S
C2903      C2904   1.342       .  D
C2903      H2915   1.087       .  S
C2904      C2905   1.477       .  S
C2904      H2916   1.087       .  S
C2905      C2906   1.400       .  A
C2905      C2910   1.405       .  A
C2906      C2907   1.397       .  A
C2906      H2917   1.083       .  S
C2907      C2908   1.406       .  A
C2907      H2918   1.083       .  S
C2908      C2909   1.406       .  A
C2909      C2910   1.402       .  A
C2909      H2919   1.083       .  S
C2910      H2920   1.083       .  S
C2921      C2922   1.406       .  A
C2921      C2926   1.406       .  A
C2922      C2923   1.397       .  A
C2922      H2935   1.083       .  S
C2923      C2924   1.402       .  A
C2923      H2936   1.084       .  S
C2924      C2925   1.407       .  A
C2924      C2927   1.483       .  S
C2925      C2926   1.397       .  A
C2925      H2937   1.081       .  S
C2926      H2938   1.083       .  S
C2927      C2928   1.348       .  D
C2927      H2939   1.085       .  S
C2928      C2929   1.485       .  S
C2928      H2940   1.086       .  S
C2929      C2930   1.403       .  A
C2929      C2934   1.407       .  A
C2930      C2931   1.398       .  A
C2930      H2941   1.084       .  S
C2931      C2932   1.405       .  A
C2931      H2942   1.083       .  S
C2932      C2933   1.406       .  A
C2933      C2934   1.397       .  A
C2933      H2943   1.083       .  S
C2934      H2944   1.081       .  S
C2945      C2946   1.407       .  A
C2945      C2950   1.408       .  A
C2946      C2947   1.393       .  A
C2946      H2959   1.083       .  S
C2947      C2948   1.402       .  A
C2947      H2960   1.084       .  S
C2948      C2949   1.413       .  A
C2948      C2951   1.497       .  S
C2949      C2950   1.410       .  A
C2949      H2961   1.080       .  S
C2950      H2962   1.083       .  S
C2951      C2952   1.350       .  D
C2951      H2963   1.084       .  S
C2952      C2953   1.498       .  S
C2952      H2964   1.084       .  S
C2953      C2954   1.404       .  A
C2953      C2958   1.411       .  A
C2954      C2955   1.402       .  A
C2954      H2965   1.083       .  S
C2955      C2956   1.408       .  A
C2955      H2966   1.083       .  S
C2956      C2957   1.406       .  A
C2957      C2958   1.402       .  A
C2957      H2967   1.083       .  S
C2958      H2968   1.081       .  S
C2969      C2970   1.408       .  A
C2969      C2974   1.406       .  A
C2970      C2971   1.402       .  A
C2970      H2983   1.083       .  S
C2971      C2972   1.404       .  A
C2971      H2984   1.084       .  S
C2972      C2973   1.411       .  A
C2972      C2975   1.497       .  S
C2973      C2974   1.402       .  A
C2973      H2985   1.080       .  S
C2974      H2986   1.083       .  S
C2975      C2976   1.350       .  D
C2975      H2987   1.085       .  S
C2976      C2977   1.494       .  S
C2976      H2988   1.084       .  S
C2977      C2978   1.402       .  A
C2977      C2982   1.411       .  A
C2978      C2979   1.396       .  A
C2978      H2989   1.084       .  S
C2979      C2980   1.407       .  A
C2979      H2990   1.083       .  S
C2980      C2981   1.408       .  A
C2981      C2982   1.408       .  A
C2981      H2991   1.083       .  S
C2982      H2992   1.081       .  S
C2993      C2994   1.406       .  A
C2993      C2998   1.403       .  A
C2994      C2995   1.404       .  A
C2994      H3007   1.083       .  S
C2995      C2996   1.405       .  A
C2995      H3008   1.083       .  S
C2996      C2997   1.406       .  A
C2996      C2999   1.488       .  S
C2997      C2998   1.392       .  A
C2997      H3009   1.082       .  S
C2998      H3010   1.084       .  S
C2999      C3000   1.348       .  D
C2999      H3011   1.085       .  S
C3000      C3001   1.482       .  S
C3000      H3012   1.086       .  S
C3001      C3002   1.402       .  A
C3001      C3006   1.408       .  A
C3002      C3003   1.393       .  A
C3002      H3013   1.084       .  S
C3003      C3004   1.402       .  A
C3003      H3014   1.084       .  S
C3004      C3005   1.405       .  A
C3005      C3006   1.405       .  A
C3005      H3015   1.083       .  S
C3006      H3016   1.082       .  S
C3017      C3018   1.407       .  A
C3017      C3022   1.407       .  A
C3018      C3019   1.399       .  A
C3018      H3031   1.083       .  S
C3019      C3020   1.403       .  A
C3019      H3032   1.083       .  S
C3020      C3021   1.407       .  A
C3020      C3023   1.487       .  S
C3021      C3022   1.399       .  A
C3021      H3033   1.082       .  S
C3022      H3034   1.083       .  S
C3023      C3024   1.349       .  D
C3023      H3035   1.084       .  S
C3024      C3025   1.491       .  S
C3024      H3036   1.086       .  S
C3025      C3026   1.404       .  A
C3025      C3030   1.409       .  A
C3026      C3027   1.398       .  A
C3026      H3037   1.084       .  S
C3027      C3028   1.406       .  A
C3027      H3038   1.083       .  S
C3028      C3029   1.406       .  A
C3029      C3030   1.400       .  A
C3029      H3039   1.083       .  S
C3030      H3040   1.080       .  S
