geometry optimzed in LAMMPS
_audit_creation_date              2020-12-01 
_audit_creation_method            'lammps2cif' 
_symmetry_space_group_name_H-M    'P1' 
_symmetry_Int_Tables_number       1 
_symmetry_cell_setting            triclinic 
loop_ 
_symmetry_equiv_pos_as_xyz 
  x,y,z 
_cell_length_a                    41.92202606 
_cell_length_b                    37.39130756525787 
_cell_length_c                    91.29083663291807 
_cell_angle_alpha                 89.94696957799032 
_cell_angle_beta                  89.78441135688496 
_cell_angle_gamma                 89.98132929276444 
loop_ 
_atom_site_label 
_atom_site_type_symbol 
_atom_site_fract_x 
_atom_site_fract_y 
_atom_site_fract_z 
_atom_site_charge 
O1          O  0.90931091  0.17746874  0.47080886    -0.82600
C2          C  0.01935089  0.17289101  0.43526324     0.96800
O3          O  0.99595107  0.15174684  0.43395598    -0.71700
O4          O  0.98721652  0.12490567  0.45998761    -0.75300
Al5        Al  0.95920635  0.14620907  0.44654094     1.49000
C6          C  0.98195839  0.12330082  0.47354834     0.92000
O7          O  0.99275665  0.21141480  0.47911718    -0.81500
O8          O  0.93851060  0.25063691  0.44780199    -0.75100
Al9        Al  0.95158451  0.19419510  0.47382810     1.90100
O10         O  0.99714850  0.24958850  0.46099587    -0.74200
O11         O  0.95825660  0.21060813  0.42610142    -0.74000
O12         O  0.01560433  0.20321062  0.44101798    -0.79700
O13         O  0.93063419  0.16316456  0.43214745    -0.77900
O14         O  0.96232314  0.18862278  0.45507832    -1.14000
O15         O  0.92254600  0.13090494  0.45753215    -0.73200
C16         C  0.90338108  0.14635050  0.46620206     0.97500
C17         C  0.00460787  0.23964494  0.47381831     0.93900
Al18       Al  0.97632906  0.22551962  0.44475632     1.55600
O19         O  0.96558641  0.14724448  0.47991012    -0.77800
C20         C  0.93664893  0.18796915  0.42320245     0.98100
C21         C  0.93001776  0.26130060  0.46028973     0.93000
O22         O  0.93549147  0.24256971  0.47159304    -0.83100
O23         O  0.84475196  0.16955547  0.27692103    -0.82600
C24         C  0.73822295  0.17426144  0.31442178     0.96800
O25         O  0.76084168  0.15201236  0.31584471    -0.71700
O26         O  0.76738999  0.12142519  0.29034926    -0.75300
Al27       Al  0.79680892  0.14334471  0.30301427     1.49000
C28         C  0.77100044  0.11895558  0.27670529     0.92000
O29         O  0.76234273  0.20825986  0.27024057    -0.81500
O30         O  0.82213573  0.24667128  0.29976511    -0.75100
Al31       Al  0.80322199  0.18881278  0.27480904     1.90100
O32         O  0.76239260  0.24836550  0.28765673    -0.74200
O33         O  0.80136773  0.20971051  0.32233353    -0.74000
O34         O  0.74302649  0.20416168  0.30838753    -0.79700
O35         O  0.82665331  0.16017484  0.31698298    -0.77900
O36         O  0.79452772  0.18527339  0.29383839    -1.14000
O37         O  0.83233910  0.12526880  0.29163042    -0.73200
C38         C  0.85028182  0.13862804  0.28184909     0.97500
C39         C  0.75265567  0.23771490  0.27529864     0.93900
Al40       Al  0.78311773  0.22400660  0.30378525     1.55600
O41         O  0.78642429  0.14258183  0.26970300    -0.77800
C42         C  0.82163398  0.18593557  0.32559805     0.98100
C43         C  0.83136416  0.25440855  0.28698414     0.93000
O44         O  0.82240738  0.23599305  0.27607126    -0.83100
O45         O  0.58233693  0.78126563  0.02694379    -0.82600
C46         C  0.49031942  0.85289002  0.06144038     0.96800
O47         O  0.49837134  0.82063584  0.06310702    -0.71700
O48         O  0.49329538  0.78535558  0.03827895    -0.75300
Al49       Al  0.52713511  0.79139409  0.05208371     1.49000
C50         C  0.49641283  0.78148423  0.02460466     0.92000
O51         O  0.53097048  0.86180361  0.01702504    -0.81500
O52         O  0.59775625  0.86884428  0.04679394    -0.75100
Al53       Al  0.55618368  0.82189244  0.02323459     1.90100
O54         O  0.54485210  0.89786144  0.03476424    -0.74200
O55         O  0.56278039  0.84934868  0.06977308    -0.74000
O56         O  0.50939645  0.87496955  0.05577688    -0.79700
O57         O  0.55869578  0.79146069  0.06725544    -0.77900
O58         O  0.54561626  0.82725482  0.04213134    -1.14000
O59         O  0.55102033  0.75512134  0.04301546    -0.73200
C60         C  0.57353531  0.75371121  0.03387647     0.97500
C61         C  0.53234795  0.89279718  0.02245560     0.93900
Al62       Al  0.55303039  0.86891573  0.05109121     1.55600
O63         O  0.52120750  0.79232292  0.01817276    -0.77800
C64         C  0.56780669  0.81821454  0.07452365     0.98100
C65         C  0.60895702  0.86638061  0.03394429     0.93000
O66         O  0.59356199  0.85046355  0.02405723    -0.83100
O67         O  0.66467893  0.77846817  0.21927604    -0.82600
C68         C  0.75929732  0.84948380  0.18524622     0.96800
O69         O  0.75100224  0.81725913  0.18412051    -0.71700
O70         O  0.75445101  0.78193817  0.20896909    -0.75300
Al71       Al  0.72139609  0.78880242  0.19478264     1.49000
C72         C  0.75073895  0.77805796  0.22261583     0.92000
O73         O  0.71615468  0.85898731  0.23017286    -0.81500
O74         O  0.65125793  0.86891948  0.20003194    -0.75100
Al75       Al  0.69125629  0.81904729  0.22341195     1.90100
O76         O  0.70507746  0.89514471  0.21203490    -0.74200
O77         O  0.68630399  0.84767450  0.17694414    -0.74000
O78         O  0.74048946  0.87213671  0.19077061    -0.79700
O79         O  0.69092865  0.78967830  0.17918806    -0.77900
O80         O  0.70283766  0.82490665  0.20460549    -1.14000
O81         O  0.69655267  0.75278282  0.20337789    -0.73200
C82         C  0.67334930  0.75120659  0.21211970     0.97500
C83         C  0.71521490  0.89016122  0.22480158     0.93900
Al84       Al  0.69639265  0.86700858  0.19564658     1.55600
O85         O  0.72573292  0.78910209  0.22878880    -0.77800
C86         C  0.68221232  0.81662891  0.17191382     0.98100
C87         C  0.63962156  0.86518304  0.21278477     0.93000
O88         O  0.65448555  0.84773408  0.22236809    -0.83100
O89         O  0.34922536  0.16713583  0.77839207    -0.82600
C90         C  0.23821305  0.16580843  0.81343654     0.96800
O91         O  0.26175296  0.14510157  0.81520520    -0.71700
O92         O  0.26991883  0.11755488  0.78927029    -0.75300
Al93       Al  0.29828754  0.13845448  0.80260549     1.49000
C94         C  0.27597776  0.11507927  0.77580488     0.92000
O95         O  0.26735487  0.20364421  0.76919908    -0.81500
O96         O  0.31982485  0.24376714  0.80071233    -0.75100
Al97       Al  0.30753004  0.18525675  0.77504596     1.90100
O98         O  0.26146185  0.24165342  0.78721338    -0.74200
O99         O  0.29930451  0.20356656  0.82237602    -0.74000
O100        O  0.24204247  0.19577120  0.80732278    -0.79700
O101        O  0.32691431  0.15552480  0.81688872    -0.77900
O102        O  0.29599794  0.18070690  0.79373053    -1.14000
O103        O  0.33454866  0.12124873  0.79168108    -0.73200
C104        C  0.35375045  0.13543932  0.78267523     0.97500
C105        C  0.25504920  0.23181979  0.77427742     0.93900
Al106      Al  0.28172456  0.21813808  0.80366681     1.55600
O107        O  0.29254519  0.13860894  0.76928509    -0.77800
C108        C  0.32056310  0.18073496  0.82559600     0.98100
C109        C  0.33070876  0.25200251  0.78826631     0.93000
O110        O  0.32483659  0.23288155  0.77714042    -0.83100
O111        O  0.40545413  0.17647155  0.97052913    -0.82600
C112        C  0.51537971  0.17801219  0.93495630     0.96800
O113        O  0.49303032  0.15541009  0.93390928    -0.71700
O114        O  0.48545675  0.12767126  0.95993963    -0.75300
Al115      Al  0.45664407  0.14767073  0.94646619     1.49000
C116        C  0.47932259  0.12517268  0.97340120     0.92000
O117        O  0.48737795  0.21352059  0.97902295    -0.81500
O118        O  0.43147857  0.25164090  0.94794256    -0.75100
Al119      Al  0.44689495  0.19494545  0.97372728     1.90100
O120        O  0.49014883  0.25270288  0.96117500    -0.74200
O121        O  0.45290038  0.21243786  0.92624599    -0.74000
O122        O  0.51054886  0.20791832  0.94091163    -0.79700
O123        O  0.42769423  0.16310815  0.93211089    -0.77900
O124        O  0.45788797  0.19022973  0.95502015    -1.14000
O125        O  0.42040875  0.13027567  0.95739940    -0.73200
C126        C  0.40070676  0.14498802  0.96604533     0.97500
C127        C  0.49810884  0.24241945  0.97388895     0.93900
Al128      Al  0.47034775  0.22811564  0.94483590     1.55600
O129        O  0.46226620  0.14853339  0.97972841    -0.77800
C130        C  0.43279261  0.18823508  0.92321915     0.98100
C131        C  0.42145575  0.26075534  0.96041529     0.93000
O132        O  0.42880567  0.24263432  0.97167045    -0.83100
O133        O  0.16665987  0.77500517  0.72190529    -0.82600
C134        C  0.25932700  0.84845938  0.68786248     0.96800
O135        O  0.25089611  0.81641718  0.68625182    -0.71700
O136        O  0.25575059  0.77812001  0.71013180    -0.75300
Al137      Al  0.22169563  0.78707375  0.69672431     1.49000
C138        C  0.25290663  0.77278697  0.72371316     0.92000
O139        O  0.22080335  0.85197656  0.73334737    -0.81500
O140        O  0.15279278  0.86778497  0.70525530    -0.75100
Al141      Al  0.19423549  0.81415278  0.72642198     1.90100
O142        O  0.20906829  0.89123340  0.71631409    -0.74200
O143        O  0.18396573  0.84839770  0.68114468    -0.74000
O144        O  0.24064953  0.87063938  0.69374370    -0.79700
O145        O  0.19030591  0.79031859  0.68170436    -0.77900
O146        O  0.20418422  0.82218845  0.70757673    -1.14000
O147        O  0.19696758  0.75020271  0.70509029    -0.73200
C148        C  0.17461563  0.74815085  0.71431474     0.97500
C149        C  0.22141029  0.88352423  0.72843166     0.93900
Al150      Al  0.19723566  0.86546505  0.69969085     1.55600
O151        O  0.22830517  0.78286029  0.73043357    -0.77800
C152        C  0.17952142  0.81800331  0.67556865     0.98100
C153        C  0.14248476  0.86296326  0.71815786     0.93000
O154        O  0.15807089  0.84401348  0.72698197    -0.83100
O155        O  0.08790555  0.78111610  0.53048510    -0.82600
C156        C  0.99586283  0.85918340  0.56335621     0.96800
O157        O  0.00183887  0.82635773  0.56456399    -0.71700
O158        O  0.99778659  0.78849418  0.54053079    -0.75300
Al159      Al  0.03080727  0.79564376  0.55462742     1.49000
C160        C  0.00192298  0.78212930  0.52710130     0.92000
O161        O  0.03690160  0.86088751  0.51825675    -0.81500
O162        O  0.10411190  0.87218239  0.54733410    -0.75100
Al163      Al  0.06188649  0.82153547  0.52546101     1.90100
O164        O  0.04972188  0.89892010  0.53557822    -0.74200
O165        O  0.07077792  0.85418427  0.57093378    -0.74000
O166        O  0.01614116  0.88007329  0.55781208    -0.79700
O167        O  0.06062594  0.79685714  0.57031404    -0.77900
O168        O  0.05085267  0.82979786  0.54418518    -1.14000
O169        O  0.05510126  0.75804369  0.54677176    -0.73200
C170        C  0.07857323  0.75494107  0.53820428     0.97500
C171        C  0.03752377  0.89238879  0.52330910     0.93900
Al172      Al  0.05939474  0.87233860  0.55229958     1.55600
O173        O  0.02737008  0.79131385  0.52085191    -0.77800
C174        C  0.07274446  0.82354951  0.57659895     0.98100
C175        C  0.11476872  0.86781935  0.53448391     0.93000
O176        O  0.09899245  0.85001732  0.52535906    -0.83100
O177        O  0.16498412  0.98999551  0.02790519    -0.82600
C178        C  0.25950623  0.91784212  0.06115790     0.96800
O179        O  0.25155820  0.95017714  0.06243336    -0.71700
O180        O  0.25430273  0.98681260  0.03804277    -0.75300
Al181      Al  0.22151373  0.97906039  0.05233484     1.49000
C182        C  0.25078001  0.99064617  0.02441572     0.92000
O183        O  0.21746145  0.91010110  0.01687451    -0.81500
O184        O  0.15145811  0.89958889  0.04694800    -0.75100
Al185      Al  0.19176680  0.94954748  0.02361155     1.90100
O186        O  0.20530228  0.87308926  0.03464241    -0.74200
O187        O  0.18672753  0.91929630  0.06998874    -0.74000
O188        O  0.24039531  0.89542881  0.05579781    -0.79700
O189        O  0.19141323  0.97735830  0.06812573    -0.77900
O190        O  0.20306039  0.94329560  0.04239014    -1.14000
O191        O  0.19593766  0.01508407  0.04427063    -0.73200
C192        C  0.17264159  0.01669836  0.03565216     0.97500
C193        C  0.21748567  0.87896413  0.02229382     0.93900
Al194      Al  0.19650175  0.90088132  0.05114446     1.55600
O195        O  0.22585448  0.97978108  0.01827332    -0.77800
C196        C  0.18292083  0.95009320  0.07524560     0.98100
C197        C  0.14003920  0.90329539  0.03420183     0.93000
O198        O  0.15515677  0.92049787  0.02456800    -0.83100
O199        O  0.08394769  0.97751874  0.22057890    -0.82600
C200        C  0.99127851  0.90753350  0.18539879     0.96800
O201        O  0.99893656  0.94003064  0.18489154    -0.71700
O202        O  0.99550539  0.97724482  0.20904301    -0.75300
Al203      Al  0.02902021  0.96808912  0.19521161     1.49000
C204        C  0.99822376  0.98124598  0.22268910     0.92000
O205        O  0.02943248  0.89946061  0.23081421    -0.81500
O206        O  0.09781317  0.88618026  0.20243656    -0.75100
Al207      Al  0.05615546  0.93805506  0.22447551     1.90100
O208        O  0.04126871  0.86218705  0.21307140    -0.74200
O209        O  0.06736898  0.90794958  0.17852692    -0.74000
O210        O  0.01030355  0.88474725  0.19059050    -0.79700
O211        O  0.05964153  0.96561787  0.17976594    -0.77900
O212        O  0.04637844  0.93189174  0.20546413    -1.14000
O213        O  0.05512755  0.00330007  0.20349874    -0.73200
C214        C  0.07770038  0.00416215  0.21254709     0.97500
C215        C  0.02928219  0.86830696  0.22545841     0.93900
Al216      Al  0.05350081  0.88934724  0.19683735     1.55600
O217        O  0.02233265  0.96934779  0.22919164    -0.77800
C218        C  0.07112751  0.93881948  0.17327854     0.98100
C219        C  0.10795041  0.88987934  0.21538464     0.93000
O220        O  0.09224311  0.90803071  0.22448114    -0.83100
O221        O  0.90111463  0.58819849  0.27771821    -0.82600
C222        C  0.00802215  0.58679004  0.31495683     0.96800
O223        O  0.98545671  0.60920213  0.31599773    -0.71700
O224        O  0.97896772  0.63725933  0.29009696    -0.75300
Al225      Al  0.94950571  0.61660120  0.30318146     1.49000
C226        C  0.97442035  0.63932645  0.27652626     0.92000
O227        O  0.98425509  0.55041046  0.27115446    -0.81500
O228        O  0.92453148  0.51211727  0.30101390    -0.75100
Al229      Al  0.94301512  0.56931663  0.27559328     1.90100
O230        O  0.98483446  0.51126685  0.28901031    -0.74200
O231        O  0.94432130  0.55142322  0.32324648    -0.74000
O232        O  0.00318142  0.55640686  0.30940788    -0.79700
O233        O  0.91974499  0.60109515  0.31746278    -0.77900
O234        O  0.95170582  0.57400506  0.29456190    -1.14000
O235        O  0.91383822  0.63356656  0.29177393    -0.73200
C236        C  0.89558990  0.61945602  0.28236710     0.97500
C237        C  0.99468536  0.52164375  0.27657504     0.93900
Al238      Al  0.96326121  0.53596661  0.30490923     1.55600
O239        O  0.95883765  0.61538590  0.26990911    -0.77800
C240        C  0.92453270  0.57590902  0.32636362     0.98100
C241        C  0.91630124  0.50338552  0.28821970     0.93000
O242        O  0.92488632  0.52195782  0.27727364    -0.83100
O243        O  0.85248324  0.58954583  0.47417347    -0.82600
C244        C  0.73996080  0.58988018  0.44035215     0.96800
O245        O  0.76266269  0.61202711  0.43906553    -0.71700
O246        O  0.77258674  0.63852893  0.46510929    -0.75300
Al247      Al  0.80007442  0.61887847  0.45093620     1.49000
C248        C  0.77843481  0.63938885  0.47862880     0.92000
O249        O  0.77198179  0.55040653  0.48375174    -0.81500
O250        O  0.82411497  0.51555198  0.45088601    -0.75100
Al251      Al  0.81154523  0.57022337  0.47774014     1.90100
O252        O  0.76739433  0.51284859  0.46552571    -0.74200
O253        O  0.80023670  0.55569058  0.43018603    -0.74000
O254        O  0.74444780  0.55994652  0.44641940    -0.79700
O255        O  0.82786449  0.60345753  0.43574599    -0.77900
O256        O  0.79898258  0.57608286  0.45929807    -1.14000
O257        O  0.83695402  0.63573945  0.46130464    -0.73200
C258        C  0.85680105  0.62116350  0.46983252     0.97500
C259        C  0.76108900  0.52173995  0.47858924     0.93900
Al260      Al  0.78507648  0.53901746  0.44907391     1.55600
O261        O  0.79568970  0.61562406  0.48452114    -0.77800
C262        C  0.82082517  0.57910240  0.42675960     0.98100
C263        C  0.83668185  0.50668624  0.46286773     0.93000
O264        O  0.83037799  0.52361673  0.47455670    -0.83100
O265        O  0.58359099  0.97774023  0.72089423    -0.82600
C266        C  0.49261514  0.90554280  0.68622979     0.96800
O267        O  0.50141654  0.93744375  0.68425728    -0.71700
O268        O  0.49470370  0.97216373  0.70915285    -0.75300
Al269      Al  0.52928905  0.96674554  0.69559214     1.49000
C270        C  0.49734027  0.97597512  0.72283913     0.92000
O271        O  0.53262900  0.89595745  0.73051931    -0.81500
O272        O  0.60036356  0.88923662  0.70094570    -0.75100
Al273      Al  0.55750299  0.93642355  0.72440393     1.90100
O274        O  0.54721669  0.85999986  0.71282597    -0.74200
O275        O  0.56485200  0.90902697  0.67773988    -0.74000
O276        O  0.51135606  0.88319317  0.69195563    -0.79700
O277        O  0.56163213  0.96698451  0.68079036    -0.77900
O278        O  0.54759423  0.93092059  0.70552748    -1.14000
O279        O  0.55223548  0.00341385  0.70486490    -0.73200
C280        C  0.57457724  0.00523576  0.71399660     0.97500
C281        C  0.53460004  0.86489120  0.72515785     0.93900
Al282      Al  0.55529505  0.88919212  0.69653064     1.55600
O283        O  0.52203344  0.96537897  0.72934630    -0.77800
C284        C  0.56991125  0.94038216  0.67321847     0.98100
C285        C  0.61108643  0.89275423  0.71385418     0.93000
O286        O  0.59489823  0.90864679  0.72351797    -0.83100
O287        O  0.68604028  0.99313263  0.52597380    -0.82600
C288        C  0.76710737  0.92942954  0.56504364     0.96800
O289        O  0.76282266  0.95950048  0.55912565    -0.71700
O290        O  0.74597291  0.00327037  0.53805381    -0.75300
Al291      Al  0.72362907  0.98023197  0.55403559     1.49000
C292        C  0.75551004  0.99202272  0.52572246     0.92000
O293        O  0.71950673  0.89828329  0.51981753    -0.81500
O294        O  0.67183325  0.88324376  0.54171509    -0.75100
Al295      Al  0.70387148  0.94532849  0.52494064     1.90100
O296        O  0.73702992  0.87744030  0.54070631    -0.74200
O297        O  0.67833825  0.91772767  0.56698165    -0.74000
O298        O  0.74435077  0.90712386  0.56600763    -0.79700
O299        O  0.70403038  0.96683896  0.57239694    -0.77900
O300        O  0.71172313  0.94173459  0.54403836    -1.14000
O301        O  0.68551240  0.00416327  0.54963043    -0.73200
C302        C  0.67672931  0.01168362  0.53679859     0.97500
C303        C  0.73392805  0.87447877  0.52709953     0.93900
Al304      Al  0.70800230  0.89998203  0.55317596     1.55600
O305        O  0.74506231  0.96294195  0.52070912    -0.77800
C306        C  0.68323985  0.94354355  0.57552790     0.98100
C307        C  0.65479556  0.89759809  0.53185864     0.93000
O308        O  0.66190044  0.92802169  0.52687754    -0.83100
O309        O  0.40209442  0.58464562  0.77915383    -0.82600
C310        C  0.51143694  0.58483302  0.81469683     0.96800
O311        O  0.48827384  0.60626019  0.81628000    -0.71700
O312        O  0.48026912  0.63497856  0.79042630    -0.75300
Al313      Al  0.45174978  0.61331675  0.80379980     1.49000
C314        C  0.47546116  0.63675143  0.77683116     0.92000
O315        O  0.48456135  0.54830121  0.77092497    -0.81500
O316        O  0.42858406  0.50869121  0.80180696    -0.75100
Al317      Al  0.44383684  0.56660418  0.77620030     1.90100
O318        O  0.48742427  0.50929185  0.78877793    -0.74200
O319        O  0.44928590  0.54769128  0.82369985    -0.74000
O320        O  0.50710768  0.55457947  0.80892116    -0.79700
O321        O  0.42272847  0.59622297  0.81812548    -0.77900
O322        O  0.45414748  0.57108133  0.79498283    -1.14000
O323        O  0.41563630  0.63018733  0.79286193    -0.73200
C324        C  0.39694411  0.61596004  0.78370827     0.97500
C325        C  0.49544337  0.51953000  0.77607526     0.93900
Al326      Al  0.46715066  0.53319883  0.80504887     1.55600
O327        O  0.45919985  0.61300714  0.77039572    -0.77800
C328        C  0.42805602  0.57060512  0.82677861     0.98100
C329        C  0.41854038  0.50049856  0.78923999     0.93000
O330        O  0.42603170  0.51910669  0.77813228    -0.83100
O331        O  0.34585220  0.59163866  0.97033037    -0.82600
C332        C  0.23257130  0.59559919  0.93661399     0.96800
O333        O  0.25655830  0.61567580  0.93497073    -0.71700
O334        O  0.26681682  0.64362619  0.96090036    -0.75300
Al335      Al  0.29368814  0.62114513  0.94716347     1.49000
C336        C  0.27340332  0.64599424  0.97433590     0.92000
O337        O  0.26423656  0.55794611  0.98177131    -0.81500
O338        O  0.31031568  0.51454870  0.94939292    -0.75100
Al339      Al  0.30406306  0.57486056  0.97475367     1.90100
O340        O  0.25347866  0.52123583  0.96380444    -0.74200
O341        O  0.29171679  0.55484728  0.92785504    -0.74000
O342        O  0.23520806  0.56649122  0.94343462    -0.79700
O343        O  0.32098161  0.60208289  0.93266738    -0.77900
O344        O  0.29061993  0.57931350  0.95633976    -1.14000
O345        O  0.33085930  0.63770387  0.95735166    -0.73200
C346        C  0.35060862  0.62317105  0.96590834     0.97500
C347        C  0.24929709  0.53128083  0.97691384     0.93900
Al348      Al  0.27395524  0.54238221  0.94689396     1.55600
O349        O  0.29025899  0.62228227  0.98060938    -0.77800
C350        C  0.31392847  0.57633384  0.92434654     0.98100
C351        C  0.32271111  0.50603155  0.96141338     0.93000
O352        O  0.32023527  0.52633733  0.97248702    -0.83100
O353        O  0.66494765  0.48573357  0.02635779    -0.82600
C354        C  0.75635314  0.41975055  0.06263118     0.96800
O355        O  0.74739832  0.45184491  0.06387049    -0.71700
O356        O  0.75323837  0.48650812  0.03898768    -0.75300
Al357      Al  0.71845777  0.47953197  0.05232784     1.49000
C358        C  0.75116340  0.49002097  0.02527579     0.92000
O359        O  0.72059243  0.40817456  0.01797188    -0.81500
O360        O  0.65038961  0.39881234  0.04641109    -0.75100
Al361      Al  0.69322044  0.44674402  0.02335283     1.90100
O362        O  0.70557485  0.37184538  0.03555883    -0.74200
O363        O  0.68338112  0.42057477  0.06992422    -0.74000
O364        O  0.73825212  0.39674054  0.05697568    -0.79700
O365        O  0.68590995  0.47862614  0.06719141    -0.77900
O366        O  0.70201216  0.44252334  0.04242963    -1.14000
O367        O  0.69395493  0.51443457  0.04255497    -0.73200
C368        C  0.67225768  0.51406575  0.03303369     0.97500
C369        C  0.71930136  0.37728360  0.02350863     0.93900
Al370      Al  0.69495694  0.40083699  0.05153628     1.55600
O371        O  0.72724887  0.47808157  0.01858669    -0.77800
C372        C  0.67804435  0.45161419  0.07465478     0.98100
C373        C  0.64081036  0.40060929  0.03327134     0.93000
O374        O  0.65729563  0.41643847  0.02369606    -0.83100
O375        O  0.56693327  0.48840990  0.22262986    -0.82600
C376        C  0.48754625  0.41714827  0.18461846     0.96800
O377        O  0.48913614  0.44727813  0.19076748    -0.71700
O378        O  0.50412185  0.49316430  0.21166539    -0.75300
Al379      Al  0.52690417  0.47207994  0.19536059     1.49000
C380        C  0.49719378  0.48220263  0.22439866     0.92000
O381        O  0.53895856  0.39163328  0.22953482    -0.81500
O382        O  0.58654313  0.37975886  0.20687816    -0.75100
Al383      Al  0.55199225  0.43943685  0.22417152     1.90100
O384        O  0.52248607  0.36850162  0.20883887    -0.74200
O385        O  0.57643509  0.41436984  0.18172727    -0.74000
O386        O  0.51199727  0.39739056  0.18353022    -0.79700
O387        O  0.54630119  0.46065918  0.17675898    -0.77900
O388        O  0.54274272  0.43500032  0.20520197    -1.14000
O389        O  0.56304173  0.49996789  0.19906637    -0.73200
C390        C  0.57291155  0.50812030  0.21164028     0.97500
C391        C  0.52528031  0.36680810  0.22252587     0.93900
Al392      Al  0.54902871  0.39367415  0.19595634     1.55600
O393        O  0.51029522  0.45443210  0.22934919    -0.77800
C394        C  0.56878644  0.43971888  0.17331264     0.98100
C395        C  0.60329408  0.39482377  0.21659388     0.93000
O396        O  0.59492447  0.42473066  0.22169669    -0.83100
O397        O  0.35513126  0.09274940  0.47145702    -0.82600
C398        C  0.24281901  0.09061916  0.43767460     0.96800
O399        O  0.26522623  0.11308071  0.43625392    -0.71700
O400        O  0.27494193  0.14145514  0.46209737    -0.75300
Al401      Al  0.30257617  0.12085488  0.44807574     1.49000
C402        C  0.28123949  0.14294172  0.47556814     0.92000
O403        O  0.27438794  0.05433219  0.48160430    -0.81500
O404        O  0.32717793  0.01701870  0.44935133    -0.75100
Al405      Al  0.31414111  0.07373152  0.47534715     1.90100
O406        O  0.26977491  0.01579382  0.46370501    -0.74200
O407        O  0.30423533  0.05556555  0.42807283    -0.74000
O408        O  0.24772817  0.06089950  0.44380712    -0.79700
O409        O  0.33039950  0.10477436  0.43308545    -0.77900
O410        O  0.30167457  0.07839037  0.45684188    -1.14000
O411        O  0.33956434  0.13850046  0.45831354    -0.73200
C412        C  0.35944988  0.12425761  0.46693912     0.97500
C413        C  0.26309351  0.02560135  0.47663428     0.93900
Al414      Al  0.28821728  0.04045037  0.44700986     1.55600
O415        O  0.29857634  0.11945263  0.48155090    -0.77800
C416        C  0.32457070  0.07913074  0.42453597     0.98100
C417        C  0.33938094  0.00906138  0.46150435     0.93000
O418        O  0.33278675  0.02692092  0.47289872    -0.83100
O419        O  0.40179623  0.08403417  0.27857128    -0.82600
C420        C  0.51512868  0.08730676  0.31191805     0.96800
O421        O  0.49191903  0.10868510  0.31323843    -0.71700
O422        O  0.48155138  0.13486857  0.28713681    -0.75300
Al423      Al  0.45448160  0.11452249  0.30143213     1.49000
C424        C  0.47517736  0.13561058  0.27366220     0.92000
O425        O  0.48355063  0.04755082  0.26860419    -0.81500
O426        O  0.43231231  0.00926018  0.30134114    -0.75100
Al427      Al  0.44341509  0.06586071  0.27474981     1.90100
O428        O  0.48972544  0.00980211  0.28675005    -0.74200
O429        O  0.45465694  0.05058387  0.32221248    -0.74000
O430        O  0.51108528  0.05689381  0.30621544    -0.79700
O431        O  0.42718249  0.09849903  0.31656265    -0.77900
O432        O  0.45614313  0.07166499  0.29315051    -1.14000
O433        O  0.41714220  0.13058509  0.29124032    -0.73200
C434        C  0.39694812  0.11551580  0.28305782     0.97500
C435        C  0.49583724  0.01950459  0.27373684     0.93900
Al436      Al  0.47084938  0.03468149  0.30333741     1.55600
O437        O  0.45778892  0.11176678  0.26796981    -0.77800
C438        C  0.43379224  0.07385106  0.32548851     0.98100
C439        C  0.42045173  0.00053089  0.28918843     0.93000
O440        O  0.42626704  0.01856596  0.27773266    -0.83100
O441        O  0.08489467  0.47774969  0.72157377    -0.82600
C442        C  0.99063956  0.40545127  0.68830834     0.96800
O443        O  0.99908440  0.43753337  0.68653911    -0.71700
O444        O  0.99471451  0.47384787  0.71120616    -0.75300
Al445      Al  0.02841260  0.46672906  0.69727607     1.49000
C446        C  0.99836906  0.47928751  0.72475539     0.92000
O447        O  0.03194326  0.39965041  0.73329655    -0.81500
O448        O  0.09749391  0.38678167  0.70335333    -0.75100
Al449      Al  0.05785550  0.43813899  0.72621100     1.90100
O450        O  0.04329670  0.36149672  0.71582395    -0.74200
O451        O  0.06330243  0.40661865  0.68011231    -0.74000
O452        O  0.00914116  0.38351509  0.69437126    -0.79700
O453        O  0.05996334  0.46489744  0.68202577    -0.77900
O454        O  0.04655565  0.43120052  0.70751192    -1.14000
O455        O  0.05269703  0.50361589  0.70590918    -0.73200
C456        C  0.07573867  0.50523865  0.71470274     0.97500
C457        C  0.03159944  0.36826314  0.72821473     0.93900
Al458      Al  0.05278860  0.38856159  0.69907652     1.55600
O459        O  0.02353189  0.46924071  0.73105819    -0.77800
C460        C  0.06846796  0.43742207  0.67499382     0.98100
C461        C  0.10909338  0.39027419  0.71604722     0.93000
O462        O  0.09459445  0.40825476  0.72566709    -0.83100
O463        O  0.18436924  0.49214739  0.52862973    -0.82600
C464        C  0.26787584  0.42437105  0.56571259     0.96800
O465        O  0.26360579  0.45481453  0.56015507    -0.71700
O466        O  0.24615411  0.50043321  0.53976875    -0.75300
Al467      Al  0.22436015  0.47634160  0.55579298     1.49000
C468        C  0.25419807  0.49058121  0.52699926     0.92000
O469        O  0.21659582  0.39796207  0.52037768    -0.81500
O470        O  0.17113157  0.38056816  0.54280962    -0.75100
Al471      Al  0.20160543  0.44440022  0.52652481     1.90100
O472        O  0.23615474  0.37505103  0.54051232    -0.74200
O473        O  0.17964287  0.41256372  0.56858914    -0.74000
O474        O  0.24525731  0.40188826  0.56631404    -0.79700
O475        O  0.20544256  0.46156379  0.57418862    -0.77900
O476        O  0.21127495  0.43892185  0.54540621    -1.14000
O477        O  0.18647873  0.50134928  0.55235354    -0.73200
C478        C  0.17706075  0.51046900  0.53982086     0.97500
C479        C  0.23197497  0.37363119  0.52690720     0.93900
Al480      Al  0.20814394  0.39623112  0.55391659     1.55600
O481        O  0.24249429  0.46246011  0.52163157    -0.77800
C482        C  0.18491342  0.43793197  0.57733364     0.98100
C483        C  0.15313015  0.39574269  0.53354709     0.93000
O484        O  0.15963244  0.42679278  0.52900668    -0.83100
O485        O  0.90180565  0.08814783  0.78149351    -0.82600
C486        C  0.01369358  0.08213109  0.81539945     0.96800
O487        O  0.99154667  0.10479167  0.81718171    -0.71700
O488        O  0.98290296  0.13474884  0.79163713    -0.75300
Al489      Al  0.95453894  0.11406889  0.80526723     1.49000
C490        C  0.97615327  0.13807412  0.77828677     0.92000
O491        O  0.98288567  0.04930530  0.77151274    -0.81500
O492        O  0.92757785  0.01073877  0.80297896    -0.75100
Al493      Al  0.94293368  0.06886391  0.77759405     1.90100
O494        O  0.98569267  0.00924982  0.78901339    -0.74200
O495        O  0.95097846  0.04791120  0.82479903    -0.74000
O496        O  0.00804888  0.05251564  0.80934270    -0.79700
O497        O  0.92602175  0.09792804  0.81985859    -0.77900
O498        O  0.95482838  0.07210244  0.79619983    -1.14000
O499        O  0.91803035  0.13299831  0.79500459    -0.73200
C500        C  0.89773668  0.11938468  0.78641282     0.97500
C501        C  0.99336568  0.01988848  0.77629598     0.93900
Al502      Al  0.96715414  0.03327322  0.80581428     1.55600
O503        O  0.95881449  0.11516097  0.77193159    -0.77800
C504        C  0.93112491  0.07197825  0.82834567     0.98100
C505        C  0.91708644  0.00294811  0.79046403     0.93000
O506        O  0.92423581  0.02186548  0.77940551    -0.83100
O507        O  0.84801012  0.09294516  0.97324519    -0.82600
C508        C  0.73735762  0.09556493  0.93804220     0.96800
O509        O  0.76096974  0.11630044  0.93662874    -0.71700
O510        O  0.76893916  0.14340502  0.96277620    -0.75300
Al511      Al  0.79724697  0.12224360  0.94930755     1.49000
C512        C  0.77429112  0.14493222  0.97633491     0.92000
O513        O  0.76615077  0.05700023  0.98294011    -0.81500
O514        O  0.81632396  0.01629057  0.95119079    -0.75100
Al515      Al  0.80623893  0.07511823  0.97679645     1.90100
O516        O  0.75821039  0.02053124  0.96456953    -0.74200
O517        O  0.79795118  0.05677435  0.92962322    -0.74000
O518        O  0.74050636  0.06599486  0.94444511    -0.79700
O519        O  0.82591576  0.10458035  0.93501780    -0.77900
O520        O  0.79439270  0.07997995  0.95816938    -1.14000
O521        O  0.83347616  0.13908273  0.96014114    -0.73200
C522        C  0.85279574  0.12456220  0.96891801     0.97500
C523        C  0.75255350  0.02993665  0.97762692     0.93900
Al524      Al  0.77940587  0.04298380  0.94823158     1.55600
O525        O  0.79127747  0.12155078  0.98265702    -0.77800
C526        C  0.81982595  0.07894731  0.92648229     0.98100
C527        C  0.82666442  0.00732730  0.96357044     0.93000
O528        O  0.82304234  0.02733843  0.97462347    -0.83100
O529        O  0.90624720  0.67924922  0.97223488    -0.82600
C530        C  0.01289460  0.68166620  0.93435810     0.96800
O531        O  0.99008641  0.65952653  0.93349337    -0.71700
O532        O  0.98357354  0.62984527  0.95925900    -0.75300
Al533      Al  0.95433643  0.65169690  0.94649925     1.49000
C534        C  0.97901553  0.62726249  0.97285041     0.92000
O535        O  0.98912124  0.71610716  0.97901945    -0.81500
O536        O  0.93059919  0.75539338  0.94924166    -0.75100
Al537      Al  0.94810236  0.69761835  0.97442658     1.90100
O538        O  0.99003221  0.75618397  0.96153134    -0.74200
O539        O  0.95070363  0.71733648  0.92679505    -0.74000
O540        O  0.00902912  0.71135963  0.94068849    -0.79700
O541        O  0.92454921  0.66874981  0.93269467    -0.77900
O542        O  0.95713544  0.69366920  0.95545483    -1.14000
O543        O  0.91877096  0.63435463  0.95791406    -0.73200
C544        C  0.90062661  0.64822671  0.96746402     0.97500
C545        C  0.99887910  0.74561413  0.97406893     0.93900
Al546      Al  0.96919962  0.73194450  0.94534073     1.55600
O547        O  0.96387727  0.65127242  0.97972301    -0.77800
C548        C  0.93001831  0.69376890  0.92378166     0.98100
C549        C  0.92109366  0.76315654  0.96196973     0.93000
O550        O  0.92978486  0.74488115  0.97295426    -0.83100
O551        O  0.84564283  0.67093759  0.77775840    -0.82600
C552        C  0.73578318  0.67216266  0.81351250     0.96800
O553        O  0.75887215  0.65062243  0.81504546    -0.71700
O554        O  0.76697948  0.62186921  0.78921488    -0.75300
Al555      Al  0.79550008  0.64311528  0.80257077     1.49000
C556        C  0.77156568  0.62058002  0.77557978     0.92000
O557        O  0.76381951  0.70869852  0.76964247    -0.81500
O558        O  0.81930482  0.74728463  0.80064220    -0.75100
Al559      Al  0.80417249  0.68983312  0.77494156     1.90100
O560        O  0.76081055  0.74795034  0.78733301    -0.74200
O561        O  0.79753343  0.70843164  0.82241778    -0.74000
O562        O  0.74012921  0.70224291  0.80752397    -0.79700
O563        O  0.82438983  0.65993002  0.81697566    -0.77900
O564        O  0.79350407  0.68538095  0.79371340    -1.14000
O565        O  0.83171669  0.62568009  0.79161391    -0.73200
C566        C  0.85054179  0.63959099  0.78235448     0.97500
C567        C  0.75319646  0.73776055  0.77459352     0.93900
Al568      Al  0.78039697  0.72333995  0.80372650     1.55600
O569        O  0.78818943  0.64410350  0.76916713    -0.77800
C570        C  0.81858312  0.68543462  0.82563578     0.98100
C571        C  0.82996314  0.75519029  0.78811686     0.93000
O572        O  0.82257267  0.73687865  0.77695973    -0.83100
O573        O  0.08431496  0.28888583  0.03035680    -0.82600
C574        C  0.98784853  0.35734189  0.06348820     0.96800
O575        O  0.99682434  0.32539004  0.06530852    -0.71700
O576        O  0.99367172  0.29066551  0.04029695    -0.75300
Al577      Al  0.02673193  0.29692939  0.05437729     1.49000
C578        C  0.99788493  0.28606205  0.02672558     0.92000
O579        O  0.03075510  0.36724232  0.01945440    -0.81500
O580        O  0.09546021  0.37680682  0.05022577    -0.75100
Al581      Al  0.05686764  0.32828766  0.02607948     1.90100
O582        O  0.04292735  0.40365761  0.03733311    -0.74200
O583        O  0.05910463  0.35588756  0.07271938    -0.74000
O584        O  0.00641355  0.37990358  0.05780485    -0.79700
O585        O  0.05788668  0.29784398  0.06964765    -0.77900
O586        O  0.04484970  0.33338834  0.04475224    -1.14000
O587        O  0.05162545  0.26081120  0.04530763    -0.73200
C588        C  0.07529588  0.26069034  0.03676189     0.97500
C589        C  0.03177759  0.39842785  0.02475997     0.93900
Al590      Al  0.05045044  0.37525150  0.05382770     1.55600
O591        O  0.02306009  0.29702273  0.02058807    -0.77800
C592        C  0.06527153  0.32477690  0.07721864     0.98100
C593        C  0.10742971  0.37498496  0.03749784     0.93000
O594        O  0.09320468  0.35849867  0.02739378    -0.83100
O595        O  0.17877336  0.26856274  0.22300693    -0.82600
C596        C  0.26255361  0.33935564  0.18610165     0.96800
O597        O  0.25950954  0.30896824  0.19186607    -0.71700
O598        O  0.24265235  0.26347382  0.21234038    -0.75300
Al599      Al  0.22078465  0.28564282  0.19613476     1.49000
C600        C  0.24903199  0.27341463  0.22525095     0.92000
O601        O  0.20778151  0.36425815  0.23112888    -0.81500
O602        O  0.16407188  0.37989633  0.20848257    -0.75100
Al603      Al  0.19442459  0.31707463  0.22508812     1.90100
O604        O  0.22857549  0.38690344  0.21110257    -0.74200
O605        O  0.17423769  0.34707754  0.18299475    -0.74000
O606        O  0.23899820  0.36045545  0.18531583    -0.79700
O607        O  0.20199862  0.29912119  0.17758822    -0.77900
O608        O  0.20553752  0.32248928  0.20630047    -1.14000
O609        O  0.18405993  0.25854922  0.19943755    -0.73200
C610        C  0.17425699  0.24899078  0.21188629     0.97500
C611        C  0.22303960  0.38883921  0.22461658     0.93900
Al612      Al  0.20162864  0.36484947  0.19762516     1.55600
O613        O  0.23534514  0.30041627  0.23065368    -0.77800
C614        C  0.18089794  0.32197067  0.17429330     0.98100
C615        C  0.14573781  0.36459622  0.21760003     0.93000
O616        O  0.15208920  0.33337833  0.22200163    -0.83100
O617        O  0.34730049  0.66911192  0.28054557    -0.82600
C618        C  0.23383434  0.66836609  0.31420803     0.96800
O619        O  0.25670635  0.64659137  0.31570916    -0.71700
O620        O  0.26676033  0.61933740  0.28970017    -0.75300
Al621      Al  0.29420469  0.63984380  0.30372632     1.49000
C622        C  0.27312649  0.61817374  0.27620978     0.92000
O623        O  0.26563330  0.70541795  0.27034148    -0.81500
O624        O  0.31724193  0.74508090  0.30245728    -0.75100
Al625      Al  0.30572727  0.68727281  0.27658301     1.90100
O626        O  0.25952379  0.74385363  0.28824547    -0.74200
O627        O  0.29554213  0.70518397  0.32384545    -0.74000
O628        O  0.23854172  0.69847595  0.30835537    -0.79700
O629        O  0.32188408  0.65615298  0.31859333    -0.77900
O630        O  0.29297393  0.68241409  0.29508383    -1.14000
O631        O  0.33144665  0.62289650  0.29341305    -0.73200
C632        C  0.35186291  0.63762234  0.28512801     0.97500
C633        C  0.25341201  0.73373606  0.27529718     0.93900
Al634      Al  0.27874216  0.72001851  0.30498003     1.55600
O635        O  0.29119375  0.64122578  0.27035247    -0.77800
C636        C  0.31642478  0.68197260  0.32712693     0.98100
C637        C  0.32826526  0.75374489  0.29010828     0.93000
O638        O  0.32273742  0.73485417  0.27890173    -0.83100
O639        O  0.40884061  0.67815165  0.47179526    -0.82600
C640        C  0.51761152  0.67410078  0.43508478     0.96800
O641        O  0.49435994  0.65263015  0.43416557    -0.71700
O642        O  0.48671974  0.62627298  0.46034631    -0.75300
Al643      Al  0.45807258  0.64709440  0.44704670     1.49000
C644        C  0.48211232  0.62498095  0.47395763     0.92000
O645        O  0.49262315  0.71309657  0.47907196    -0.81500
O646        O  0.43691943  0.75177585  0.44829514    -0.75100
Al647      Al  0.45126193  0.69549904  0.47427360     1.90100
O648        O  0.49626154  0.75075603  0.46073533    -0.74200
O649        O  0.45575435  0.71148779  0.42650421    -0.74000
O650        O  0.51384271  0.70456246  0.44069462    -0.79700
O651        O  0.42904063  0.66347395  0.43272465    -0.77900
O652        O  0.46121113  0.68973449  0.45541574    -1.14000
O653        O  0.42177971  0.63162632  0.45842639    -0.73200
C654        C  0.40295850  0.64682474  0.46735112     0.97500
C655        C  0.50447592  0.74097957  0.47346245     0.93900
Al656      Al  0.47462534  0.72662438  0.44486189     1.55600
O657        O  0.46579396  0.64885399  0.48036917    -0.77800
C658        C  0.43466058  0.68823927  0.42369447     0.98100
C659        C  0.42932685  0.76268691  0.46086968     0.93000
O660        O  0.43494047  0.74381555  0.47211300    -0.83100
O661        O  0.67942229  0.26806919  0.72518935    -0.82600
C662        C  0.76165134  0.33642728  0.68749152     0.96800
O663        O  0.75823419  0.30616785  0.69337652    -0.71700
O664        O  0.74129349  0.26128498  0.71418136    -0.75300
Al665      Al  0.71946584  0.28336143  0.69785934     1.49000
C666        C  0.74903468  0.27254493  0.72675640     0.92000
O667        O  0.70864938  0.36402803  0.73223764    -0.81500
O668        O  0.66313546  0.37761902  0.70945354    -0.75100
Al669      Al  0.69520416  0.31659360  0.72668973     1.90100
O670        O  0.72765019  0.38628279  0.71178654    -0.74200
O671        O  0.67282281  0.34382156  0.68445678    -0.74000
O672        O  0.73820450  0.35769543  0.68641167    -0.79700
O673        O  0.70089702  0.29621370  0.67920892    -0.77900
O674        O  0.70505591  0.32098664  0.70777391    -1.14000
O675        O  0.68206249  0.25712365  0.70156727    -0.73200
C676        C  0.67246710  0.24884959  0.71422658     0.97500
C677        C  0.72333573  0.38844210  0.72538365     0.93900
Al678      Al  0.70067738  0.36274676  0.69870185     1.55600
O679        O  0.73655712  0.30066289  0.73177482    -0.77800
C680        C  0.67917327  0.31829564  0.67594463     0.98100
C681        C  0.64525347  0.36233075  0.71875007     0.93000
O682        O  0.65278697  0.33221609  0.72392504    -0.83100
O683        O  0.58587968  0.28067593  0.52952100    -0.82600
C684        C  0.49612623  0.35821306  0.56395831     0.96800
O685        O  0.50235924  0.32533969  0.56490803    -0.71700
O686        O  0.49716756  0.28865198  0.54033238    -0.75300
Al687      Al  0.53063466  0.29475012  0.55447209     1.49000
C688        C  0.50066977  0.28472871  0.52667001     0.92000
O689        O  0.53814981  0.36406341  0.51885763    -0.81500
O690        O  0.60420637  0.36976827  0.54864386    -0.75100
Al691      Al  0.56141346  0.32288222  0.52552196     1.90100
O692        O  0.55162831  0.39997669  0.53670000    -0.74200
O693        O  0.56892172  0.35226360  0.57165864    -0.74000
O694        O  0.51588229  0.37946880  0.55820604    -0.79700
O695        O  0.56118274  0.29467247  0.57012352    -0.77900
O696        O  0.55055901  0.32955180  0.54436835    -1.14000
O697        O  0.55402210  0.25725440  0.54604403    -0.73200
C698        C  0.57634765  0.25407537  0.53689083     0.97500
C699        C  0.53991247  0.39512219  0.52423473     0.93900
Al700      Al  0.55934210  0.37139365  0.55308600     1.55600
O701        O  0.52573232  0.29520414  0.52043830    -0.77800
C702        C  0.57175681  0.32142808  0.57698204     0.98100
C703        C  0.61561612  0.36505032  0.53594189     0.93000
O704        O  0.59960398  0.34913284  0.52632033    -0.83100
C705        C  0.62089877  0.33712245  0.64524750    -0.11600
C706        C  0.63046785  0.31254180  0.63443198     0.05500
C707        C  0.65512362  0.28834687  0.63771165    -0.10400
C708        C  0.67056547  0.28959541  0.65131031    -0.12000
C709        C  0.66164566  0.31505322  0.66190446    -0.01800
C710        C  0.63631046  0.33842205  0.65877212    -0.10900
C711        C  0.61581644  0.31379495  0.61958948     0.05500
H712        H  0.66320124  0.26926848  0.62958925     0.07500
H713        H  0.68997330  0.27119696  0.65339083     0.10900
H714        H  0.62858976  0.35813285  0.66672239     0.11200
H715        H  0.60158035  0.35567190  0.64319886     0.07500
C716        C  0.60824415  0.28244518  0.61178155    -0.11600
C717        C  0.59395012  0.28447514  0.59788930    -0.10900
C718        C  0.58728219  0.31790111  0.59152312    -0.01800
C719        C  0.59536550  0.34905806  0.59930429    -0.12000
C720        C  0.60937512  0.34703356  0.61308959    -0.10400
H721        H  0.61285973  0.25641144  0.61652128     0.07500
H722        H  0.58807351  0.26000928  0.59217002     0.11200
H723        H  0.59072566  0.37532559  0.59477479     0.10900
H724        H  0.61548494  0.37169267  0.61862114     0.07500
C725        C  0.51551644  0.49037602  0.51763996    -0.11600
C726        C  0.51435435  0.49235985  0.50232930     0.05500
C727        C  0.52008624  0.46119591  0.49404676    -0.10400
C728        C  0.52721630  0.42872754  0.50102944    -0.12000
C729        C  0.52888630  0.42722676  0.51636124    -0.01800
C730        C  0.52252688  0.45827273  0.52454273    -0.10900
C731        C  0.50719342  0.52709578  0.49525493     0.05500
H732        H  0.51902440  0.46194175  0.48218749     0.07500
H733        H  0.53226346  0.40525738  0.49450351     0.10900
H734        H  0.52356052  0.45797928  0.53641437     0.11200
H735        H  0.51172620  0.51387850  0.52432396     0.07500
C736        C  0.48412861  0.55001352  0.50138325    -0.11600
C737        C  0.47735587  0.58289847  0.49491377    -0.10900
C738        C  0.49319931  0.59334955  0.48205926    -0.01800
C739        C  0.51663807  0.57081350  0.47602569    -0.12000
C740        C  0.52368701  0.53801793  0.48260329    -0.10400
H741        H  0.47066320  0.54212059  0.51101532     0.07500
H742        H  0.45870983  0.59938024  0.49959730     0.11200
H743        H  0.52910924  0.57827306  0.46605284     0.10900
H744        H  0.54196092  0.52123822  0.47780674     0.07500
C745        C  0.40190067  0.71931705  0.38692954    -0.11600
C746        C  0.38479319  0.68897972  0.38234083     0.05500
C747        C  0.38381428  0.65893421  0.39158961    -0.10400
C748        C  0.39960167  0.65906655  0.40504737    -0.12000
C749        C  0.41712634  0.68910933  0.40957678    -0.01800
C750        C  0.41811474  0.71928811  0.40036356    -0.10900
C751        C  0.36815115  0.68815580  0.36794535     0.05500
H752        H  0.37055636  0.63532667  0.38845599     0.07500
H753        H  0.39838324  0.63533715  0.41184283     0.10900
H754        H  0.43139427  0.74285007  0.40354185     0.11200
H755        H  0.40323283  0.74279791  0.37999499     0.07500
C756        C  0.34929936  0.71706861  0.36323694    -0.11600
C757        C  0.33241578  0.71518479  0.35000649    -0.10900
C758        C  0.33434101  0.68451706  0.34112353    -0.01800
C759        C  0.35377773  0.65599105  0.34571699    -0.12000
C760        C  0.37032902  0.65773506  0.35896680    -0.10400
H761        H  0.34703188  0.74078209  0.36995340     0.07500
H762        H  0.31781711  0.73771060  0.34674424     0.11200
H763        H  0.35598274  0.63204556  0.33913075     0.10900
H764        H  0.38498737  0.63521575  0.36218936     0.07500
C765        C  0.24631548  0.48467683  0.23077360    -0.11600
C766        C  0.24102306  0.48877400  0.24586676     0.05500
C767        C  0.23104337  0.45899908  0.25413828    -0.10400
C768        C  0.22620477  0.42591434  0.24739477    -0.12000
C769        C  0.23169232  0.42198454  0.23231408    -0.01800
C770        C  0.24204789  0.45163985  0.22411873    -0.10900
C771        C  0.24708508  0.52371089  0.25294925     0.05500
H772        H  0.22723723  0.46113894  0.26584390     0.07500
H773        H  0.21785220  0.40360280  0.25392323     0.10900
H774        H  0.24588019  0.44970947  0.21239756     0.11200
H775        H  0.25330105  0.50715104  0.22401013     0.07500
C776        C  0.27269271  0.54504917  0.24817537    -0.11600
C777        C  0.27983954  0.57691760  0.25526700    -0.10900
C778        C  0.26195276  0.58780166  0.26747294    -0.01800
C779        C  0.23581154  0.56718488  0.27207020    -0.12000
C780        C  0.22822223  0.53552780  0.26476761    -0.10400
H781        H  0.28812668  0.53648684  0.23930741     0.07500
H782        H  0.30044704  0.59205596  0.25166815     0.11200
H783        H  0.22165179  0.57520551  0.28146920     0.10900
H784        H  0.20793034  0.52009429  0.26849922     0.07500
C785        C  0.08933174  0.34329162  0.11625118    -0.11600
C786        C  0.11377611  0.31812947  0.11867504     0.05500
C787        C  0.12069872  0.29337588  0.10743841    -0.10400
C788        C  0.10413694  0.29443063  0.09409433    -0.12000
C789        C  0.08087948  0.32073038  0.09161100    -0.01800
C790        C  0.07353311  0.34492178  0.10284723    -0.10900
C791        C  0.13207661  0.31859205  0.13274632     0.05500
H792        H  0.13949563  0.27380852  0.10874690     0.07500
H793        H  0.11034562  0.27563617  0.08552679     0.10900
H794        H  0.05537112  0.36517793  0.10126302     0.11200
H795        H  0.08226572  0.36196599  0.12470372     0.07500
C796        C  0.13666908  0.35101215  0.14030472    -0.11600
C797        C  0.15222764  0.35176596  0.15378309    -0.10900
C798        C  0.16453228  0.32033482  0.15996233    -0.01800
C799        C  0.16118210  0.28801561  0.15228254    -0.12000
C800        C  0.14483656  0.28707090  0.13888714    -0.10400
H801        H  0.12845723  0.37613003  0.13579507     0.07500
H802        H  0.15504172  0.37720358  0.15929765     0.11200
H803        H  0.17053529  0.26337314  0.15680285     0.10900
H804        H  0.14167709  0.26151756  0.13353828     0.07500
C805        C  0.73275571  0.53229408  0.76672396    -0.11600
C806        C  0.74808623  0.52352266  0.75347432     0.05500
C807        C  0.76859853  0.54873473  0.74696189    -0.10400
C808        C  0.77437586  0.58141412  0.75371606    -0.12000
C809        C  0.76033314  0.58937166  0.76729229    -0.01800
C810        C  0.73901387  0.56483749  0.77363170    -0.10900
C811        C  0.74311545  0.48819499  0.74647206     0.05500
H812        H  0.78125053  0.54277029  0.73690580     0.07500
H813        H  0.79126175  0.59961367  0.74866571     0.10900
H814        H  0.72785215  0.57039112  0.78410404     0.11200
H815        H  0.71620549  0.51387340  0.77185212     0.07500
C816        C  0.73876684  0.45704571  0.75494185    -0.11600
C817        C  0.73336361  0.42405603  0.74817640    -0.10900
C818        C  0.73287649  0.42160362  0.73285010    -0.01800
C819        C  0.73823642  0.45248648  0.72442946    -0.12000
C820        C  0.74289652  0.48538905  0.73114268    -0.10400
H821        H  0.73947888  0.45812724  0.76677899     0.07500
H822        H  0.72920755  0.40061530  0.75490255     0.11200
H823        H  0.73745321  0.45159274  0.71258067     0.10900
H824        H  0.74545975  0.50879881  0.72424861     0.07500
C825        C  0.01700789  0.49495890  0.01575871    -0.11600
C826        C  0.00441735  0.49334810  0.00161033     0.05500
C827        C  0.00000767  0.45975040  0.99494341    -0.10400
C828        C  0.00832166  0.42827030  0.00240058    -0.12000
C829        C  0.02112233  0.43024522  0.01656959    -0.01800
C830        C  0.02507506  0.46395413  0.02313909    -0.10900
C831        C  0.99714901  0.52719458  0.99397008     0.05500
H832        H  0.99014219  0.45788223  0.98401229     0.07500
H833        H  0.00503958  0.40267139  0.99710287     0.10900
H834        H  0.03506166  0.46668683  0.03401604     0.11200
H835        H  0.02139321  0.52035924  0.02105028     0.07500
C836        C  0.98339023  0.55575143  0.00175335    -0.11600
C837        C  0.97906852  0.58886514  0.99509378    -0.10900
C838        C  0.98807014  0.59405045  0.98043308    -0.01800
C839        C  0.00162190  0.56543880  0.97258325    -0.12000
C840        C  0.00611708  0.53226245  0.97929804    -0.10400
H841        H  0.97581300  0.55242252  0.01303940     0.07500
H842        H  0.96791897  0.61010068  0.00132755     0.11200
H843        H  0.00827631  0.56849036  0.96116610     0.10900
H844        H  0.01709843  0.51083908  0.97312094     0.07500
C845        C  0.87966870  0.66408180  0.89156083    -0.11600
C846        C  0.88272784  0.69299844  0.88182852     0.05500
C847        C  0.90080888  0.72283885  0.88615785    -0.10400
C848        C  0.91600365  0.72339441  0.89982608    -0.12000
C849        C  0.91303932  0.69432207  0.90952395    -0.01800
C850        C  0.89447467  0.66480608  0.90525191    -0.10900
C851        C  0.86717922  0.69169168  0.86720528     0.05500
H852        H  0.90371763  0.74542107  0.87883922     0.07500
H853        H  0.93018965  0.74647528  0.90276757     0.10900
H854        H  0.89172061  0.64190877  0.91242019     0.11200
H855        H  0.86559886  0.64091707  0.88860323     0.07500
C856        C  0.86918711  0.66066862  0.85855774    -0.11600
C857        C  0.85388228  0.65889085  0.84497661    -0.10900
C858        C  0.83583646  0.68793143  0.83979044    -0.01800
C859        C  0.83399403  0.71907326  0.84839810    -0.12000
C860        C  0.84968386  0.72101453  0.86190818    -0.10400
H861        H  0.88275479  0.63778455  0.86229032     0.07500
H862        H  0.85580503  0.63451794  0.83862803     0.11200
H863        H  0.82036044  0.74193829  0.84470326     0.10900
H864        H  0.84755196  0.74517440  0.86837821     0.07500
C865        C  0.83324250  0.90850563  0.95872327    -0.11600
C866        C  0.86009762  0.89994349  0.96712615     0.05500
C867        C  0.87534593  0.92709662  0.97518922    -0.10400
C868        C  0.86449418  0.96248306  0.97435337    -0.12000
C869        C  0.83887434  0.97093001  0.96517984    -0.01800
C870        C  0.82302833  0.94363201  0.95762063    -0.10900
C871        C  0.87327806  0.86333953  0.96640433     0.05500
H872        H  0.89621423  0.92121218  0.98171502     0.07500
H873        H  0.87659440  0.98325176  0.98043986     0.10900
H874        H  0.80241881  0.94947839  0.95088802     0.11200
H875        H  0.82037953  0.88806682  0.95277865     0.07500
C876        C  0.88630483  0.84665545  0.97880782    -0.11600
C877        C  0.90044271  0.81291709  0.97759979    -0.10900
C878        C  0.90183422  0.79559865  0.96396147    -0.01800
C879        C  0.88781694  0.81176955  0.95171953    -0.12000
C880        C  0.87380554  0.84528184  0.95291309    -0.10400
H881        H  0.88592547  0.85985633  0.98935587     0.07500
H882        H  0.91140064  0.80107738  0.98717477     0.11200
H883        H  0.88865561  0.79905506  0.94106648     0.10900
H884        H  0.86447364  0.85763799  0.94308706     0.07500
C885        C  0.91269781  0.15843942  0.99651767    -0.11600
C886        C  0.91710039  0.19399256  0.99190660     0.05500
C887        C  0.90297493  0.20511039  0.97872047    -0.10400
C888        C  0.88375869  0.18170339  0.97069355    -0.12000
C889        C  0.87836353  0.14653869  0.97559419    -0.01800
C890        C  0.89365402  0.13493527  0.98843408    -0.10900
C891        C  0.93612436  0.21945416  0.00086480     0.05500
H892        H  0.90576105  0.23232306  0.97490376     0.07500
H893        H  0.87204789  0.19165358  0.96093412     0.10900
H894        H  0.88972326  0.10821549  0.99261460     0.11200
H895        H  0.92372188  0.14887948  0.00650759     0.07500
C896        C  0.93322845  0.22001860  0.01623653    -0.11600
C897        C  0.95212479  0.24300662  0.02466240    -0.10900
C898        C  0.97449638  0.26567043  0.01790798    -0.01800
C899        C  0.97668483  0.26583731  0.00252612    -0.12000
C900        C  0.95764031  0.24313089  0.99411665    -0.10400
H901        H  0.91650201  0.20252907  0.02173779     0.07500
H902        H  0.95001941  0.24209935  0.03650406     0.11200
H903        H  0.99370759  0.28291214  0.99698986     0.10900
H904        H  0.96055488  0.24326539  0.98230652     0.07500
C905        C  0.87694524  0.91621311  0.79992332    -0.11600
C906        C  0.87943084  0.89753744  0.78660443     0.05500
C907        C  0.89028630  0.91583590  0.77408331    -0.10400
C908        C  0.90016149  0.95142274  0.77507906    -0.12000
C909        C  0.89968666  0.96912565  0.78863414    -0.01800
C910        C  0.88718099  0.95153363  0.80095153    -0.10900
C911        C  0.87100891  0.85906370  0.78596703     0.05500
H912        H  0.89254284  0.90224792  0.76367068     0.07500
H913        H  0.91005998  0.96429232  0.76544584     0.10900
H914        H  0.88642324  0.96465878  0.81151997     0.11200
H915        H  0.86763038  0.90332343  0.80966684     0.07500
C916        C  0.87730068  0.83663771  0.79799766    -0.11600
C917        C  0.86572081  0.80173771  0.79830747    -0.10900
C918        C  0.84832243  0.78832814  0.78644840    -0.01800
C919        C  0.84427478  0.80955189  0.77391307    -0.12000
C920        C  0.85533007  0.84477276  0.77370712    -0.10400
H921        H  0.89032014  0.84641290  0.80740235     0.07500
H922        H  0.86927207  0.78567094  0.80804661     0.11200
H923        H  0.83054447  0.79981957  0.76470728     0.10900
H924        H  0.85001603  0.86130183  0.76429252     0.07500
C925        C  0.87406555  0.10076408  0.89442862    -0.11600
C926        C  0.86961781  0.07105815  0.88525322     0.05500
C927        C  0.84980891  0.04305311  0.89002619    -0.10400
C928        C  0.83386108  0.04534642  0.90350561    -0.12000
C929        C  0.83774307  0.07550699  0.91253003    -0.01800
C930        C  0.85844105  0.10289800  0.90793628    -0.10900
C931        C  0.88462151  0.07029954  0.87051219     0.05500
H932        H  0.84591196  0.01991827  0.88313220     0.07500
H933        H  0.81822525  0.02370394  0.90678341     0.10900
H934        H  0.86211817  0.12638649  0.91465579     0.11200
H935        H  0.88954809  0.12250041  0.89109072     0.07500
C936        C  0.88294790  0.10061057  0.86146564    -0.11600
C937        C  0.89754099  0.10073945  0.84770474    -0.10900
C938        C  0.91449182  0.07067602  0.84269457    -0.01800
C939        C  0.91586250  0.04009110  0.85165733    -0.12000
C940        C  0.90084460  0.03982482  0.86541017    -0.10400
H941        H  0.87020225  0.12425323  0.86503764     0.07500
H942        H  0.89593772  0.12471266  0.84107164     0.11200
H943        H  0.92863198  0.01648631  0.84807069     0.10900
H944        H  0.90249432  0.01611587  0.87219868     0.07500
C945        C  0.80049416  0.19636015  0.74067136    -0.11600
C946        C  0.80865926  0.20815144  0.75480910     0.05500
C947        C  0.79812402  0.24211638  0.75935427    -0.10400
C948        C  0.77956852  0.26347161  0.75009445    -0.12000
C949        C  0.77110884  0.25141900  0.73604205    -0.01800
C950        C  0.78195319  0.21769980  0.73142081    -0.10900
C951        C  0.82875783  0.18539759  0.76454873     0.05500
H952        H  0.80370498  0.25197441  0.77020261     0.07500
H953        H  0.77139725  0.28918022  0.75404778     0.10900
H954        H  0.77573166  0.20750246  0.72069618     0.11200
H955        H  0.80869075  0.17072320  0.73667315     0.07500
C956        C  0.82544219  0.14792579  0.76458820    -0.11600
C957        C  0.84661479  0.12633989  0.77247255    -0.10900
C958        C  0.87137156  0.14173427  0.78065372    -0.01800
C959        C  0.87350990  0.17923053  0.78134013    -0.12000
C960        C  0.85255886  0.20079437  0.77334291    -0.10400
H961        H  0.80689571  0.13517150  0.75822589     0.07500
H962        H  0.84432697  0.09756749  0.77173403     0.11200
H963        H  0.89261557  0.19196053  0.78736521     0.10900
H964        H  0.85607056  0.22945490  0.77348769     0.07500
C965        C  0.33429244  0.61988281  0.49234075    -0.11600
C966        C  0.33329353  0.58255654  0.49024336     0.05500
C967        C  0.35296789  0.56761174  0.47932477    -0.10400
C968        C  0.37394992  0.58901591  0.47121346    -0.12000
C969        C  0.37615527  0.62599185  0.47384497    -0.01800
C970        C  0.35554615  0.64130986  0.48428792    -0.10900
C971        C  0.31293080  0.55903423  0.49972595     0.05500
H972        H  0.35329519  0.53904634  0.47746097     0.07500
H973        H  0.38965963  0.57616429  0.46337488     0.10900
H974        H  0.35662754  0.66966846  0.48661407     0.11200
H975        H  0.31902313  0.63253457  0.50040464     0.07500
C976        C  0.30827980  0.56680930  0.51468656    -0.11600
C977        C  0.28983721  0.54427277  0.52362713    -0.10900
C978        C  0.27573819  0.51321404  0.51788886    -0.01800
C979        C  0.28053787  0.50529377  0.50297998    -0.12000
C980        C  0.29873972  0.52792273  0.49402764    -0.10400
H981        H  0.31923503  0.59008225  0.51956888     0.07500
H982        H  0.28650763  0.55128989  0.53504642     0.11200
H983        H  0.26968351  0.48190472  0.49812243     0.10900
H984        H  0.30125945  0.52122753  0.48253957     0.07500
C985        C  0.42134914  0.41433007  0.56719715    -0.11600
C986        C  0.40024430  0.39051324  0.57425343     0.05500
C987        C  0.41229498  0.35781827  0.57945315    -0.10400
C988        C  0.44400640  0.34816630  0.57679454    -0.12000
C989        C  0.46451284  0.37109959  0.56897406    -0.01800
C990        C  0.45314997  0.40478257  0.56464194    -0.10900
C991        C  0.36539015  0.39835885  0.57482247     0.05500
H992        H  0.39695150  0.33916312  0.58520290     0.07500
H993        H  0.45214046  0.32214167  0.58041285     0.10900
H994        H  0.46831909  0.42298602  0.55854844     0.11200
H995        H  0.41292012  0.43955516  0.56287248     0.07500
C996        C  0.35436232  0.43366983  0.57636369    -0.11600
C997        C  0.32217000  0.44182412  0.57427719    -0.10900
C998        C  0.30016755  0.41479318  0.57083724    -0.01800
C999        C  0.31060077  0.37915755  0.57043060    -0.12000
C1000       C  0.34291906  0.37102592  0.57231495    -0.10400
H1001       H  0.37081690  0.45525867  0.57865123     0.07500
H1002       H  0.31468068  0.46951362  0.57480064     0.11200
H1003       H  0.29418563  0.35784406  0.56766849     0.10900
H1004       H  0.35049433  0.34358060  0.57089039     0.07500
C1005       C  0.97173968  0.21630071  0.75256279    -0.11600
C1006       C  0.99523855  0.23928747  0.75817662     0.05500
C1007       C  0.01367981  0.22778645  0.77011988    -0.10400
C1008       C  0.00850970  0.19409688  0.77634562    -0.12000
C1009       C  0.98515125  0.17117431  0.77059848    -0.01800
C1010       C  0.96699198  0.18252277  0.75859563    -0.10900
C1011       C  0.00154746  0.27413255  0.75096472     0.05500
H1012       H  0.03227891  0.24461618  0.77454800     0.07500
H1013       H  0.02253148  0.18611129  0.78575010     0.10900
H1014       H  0.94816619  0.16588146  0.75422964     0.11200
H1015       H  0.95661280  0.22459262  0.74358423     0.07500
C1016       C  0.99998483  0.27643266  0.73565051    -0.11600
C1017       C  0.00795483  0.30794282  0.72851129    -0.10900
C1018       C  0.01812574  0.33796331  0.73643480    -0.01800
C1019       C  0.01844884  0.33657104  0.75178749    -0.12000
C1020       C  0.01026125  0.30473680  0.75902415    -0.10400
H1021       H  0.99388125  0.25341273  0.72906364     0.07500
H1022       H  0.00726193  0.30837479  0.71663977     0.11200
H1023       H  0.02631142  0.35939655  0.75809889     0.10900
H1024       H  0.01122090  0.30388701  0.77087644     0.07500
C1025       C  0.14619520  0.47291441  0.61227770    -0.11600
C1026       C  0.13415995  0.44132107  0.61870045     0.05500
C1027       C  0.13947623  0.40875381  0.61128676    -0.10400
C1028       C  0.15548236  0.40788825  0.59781958    -0.12000
C1029       C  0.16748840  0.43937546  0.59150623    -0.01800
C1030       C  0.16295029  0.47187642  0.59893748    -0.10900
C1031       C  0.11621546  0.44198691  0.63298884     0.05500
H1032       H  0.13170676  0.38359812  0.61593832     0.07500
H1033       H  0.15903408  0.38234204  0.59246388     0.10900
H1034       H  0.17185242  0.49661086  0.59429112     0.11200
H1035       H  0.14232391  0.49863112  0.61740043     0.07500
C1036       C  0.12243868  0.46803919  0.64380967    -0.11600
C1037       C  0.10622163  0.46752455  0.65731578    -0.10900
C1038       C  0.08404160  0.44045378  0.66045022    -0.01800
C1039       C  0.07744115  0.41484440  0.64965995    -0.12000
C1040       C  0.09286587  0.41590604  0.63607188    -0.10400
H1041       H  0.14042792  0.48834143  0.64206046     0.07500
H1042       H  0.11184662  0.48747987  0.66549972     0.11200
H1043       H  0.06006247  0.39397376  0.65171846     0.10900
H1044       H  0.08629892  0.39612131  0.62799284     0.07500
C1045       C  0.95763557  0.52380926  0.75702792    -0.11600
C1046       C  0.93413004  0.54459579  0.75020451     0.05500
C1047       C  0.93014498  0.54163867  0.73494165    -0.10400
C1048       C  0.94992830  0.51904624  0.72665276    -0.12000
C1049       C  0.97428247  0.49931922  0.73345206    -0.01800
C1050       C  0.97752632  0.50158194  0.74876995    -0.10900
C1051       C  0.91443537  0.56981171  0.75900512     0.05500
H1052       H  0.91191814  0.55701339  0.72943345     0.07500
H1053       H  0.94686387  0.51796597  0.71486942     0.10900
H1054       H  0.99601869  0.48682454  0.75437331     0.11200
H1055       H  0.96137321  0.52565386  0.76875344     0.07500
C1056       C  0.90086519  0.55897016  0.77239820    -0.11600
C1057       C  0.88160896  0.58239537  0.78048548    -0.10900
C1058       C  0.87578873  0.61734359  0.77545967    -0.01800
C1059       C  0.89045081  0.62860603  0.76234827    -0.12000
C1060       C  0.90938098  0.60502770  0.75417680    -0.10400
H1061       H  0.90430572  0.53198560  0.77637193     0.07500
H1062       H  0.87036370  0.57269721  0.79043613     0.11200
H1063       H  0.88617912  0.65515084  0.75805581     0.10900
H1064       H  0.91996389  0.61428123  0.74400150     0.07500
C1065       C  0.90522578  0.40813364  0.67461394    -0.11600
C1066       C  0.89348046  0.37489219  0.67947804     0.05500
C1067       C  0.91493416  0.35080702  0.68605638    -0.10400
C1068       C  0.94683464  0.36010263  0.68818756    -0.12000
C1069       C  0.95818150  0.39390891  0.68395490    -0.01800
C1070       C  0.93718543  0.41758300  0.67687631    -0.10900
C1071       C  0.85875270  0.36610026  0.67882008     0.05500
H1072       H  0.90683147  0.32527255  0.69023781     0.07500
H1073       H  0.96225853  0.34132085  0.69377621     0.10900
H1074       H  0.94521457  0.44383142  0.67345334     0.11200
H1075       H  0.88959879  0.42715147  0.66930203     0.07500
C1076       C  0.83543803  0.39259972  0.68131931    -0.11600
C1077       C  0.80325839  0.38329336  0.68305497    -0.10900
C1078       C  0.79383323  0.34729065  0.68252775    -0.01800
C1079       C  0.81669279  0.32112863  0.67912028    -0.12000
C1080       C  0.84867429  0.33045197  0.67712163    -0.10400
H1081       H  0.84220221  0.42028254  0.68282664     0.07500
H1082       H  0.78613783  0.40396058  0.68579391     0.11200
H1083       H  0.81000244  0.29318963  0.67850645     0.10900
H1084       H  0.86569171  0.30944546  0.67475802     0.07500
C1085       C  0.37489906  0.91817517  0.30043913    -0.11600
C1086       C  0.37666766  0.89743955  0.28760914     0.05500
C1087       C  0.38965736  0.91281326  0.27485407    -0.10400
C1088       C  0.40204164  0.94746063  0.27513638    -0.12000
C1089       C  0.40204314  0.96715692  0.28821211    -0.01800
C1090       C  0.38776649  0.95254783  0.30077859    -0.10900
C1091       C  0.36629913  0.85949604  0.28775714     0.05500
H1092       H  0.39164092  0.89754599  0.26483007     0.07500
H1093       H  0.41329434  0.95802005  0.26534217     0.10900
H1094       H  0.38731593  0.96735600  0.31096760     0.11200
H1095       H  0.36416884  0.90755882  0.31033855     0.07500
C1096       C  0.37131579  0.83823343  0.30025968    -0.11600
C1097       C  0.36035863  0.80306927  0.30075736    -0.10900
C1098       C  0.34476969  0.78818772  0.28865814    -0.01800
C1099       C  0.34094148  0.80871208  0.27591100    -0.12000
C1100       C  0.35140951  0.84415944  0.27549256    -0.10400
H1101       H  0.38349160  0.84884374  0.30974802     0.07500
H1102       H  0.36345639  0.78771488  0.31071618     0.11200
H1103       H  0.32829094  0.79799044  0.26656036     0.10900
H1104       H  0.34684952  0.85986073  0.26575947     0.07500
C1105       C  0.34606311  0.19533948  0.27310275    -0.11600
C1106       C  0.32740407  0.18155192  0.26166407     0.05500
C1107       C  0.32872775  0.14461712  0.25877135    -0.10400
C1108       C  0.34965081  0.12240363  0.26650564    -0.12000
C1109       C  0.36975115  0.13665660  0.27731693    -0.01800
C1110       C  0.36695273  0.17315661  0.28083444    -0.10900
C1111       C  0.30795520  0.20586198  0.25232042     0.05500
H1112       H  0.31411811  0.13299777  0.25023475     0.07500
H1113       H  0.35118849  0.09447080  0.26351756     0.10900
H1114       H  0.38220731  0.18511108  0.28905231     0.11200
H1115       H  0.34576167  0.22360585  0.27558275     0.07500
C1116       C  0.29100565  0.23466801  0.25846385    -0.11600
C1117       C  0.27278465  0.25739692  0.24961344    -0.10900
C1118       C  0.27103856  0.25181233  0.23439556    -0.01800
C1119       C  0.28847280  0.22344952  0.22822181    -0.12000
C1120       C  0.30675572  0.20081241  0.23705985    -0.10400
H1121       H  0.29125253  0.23919941  0.27019602     0.07500
H1122       H  0.25938812  0.27872836  0.25474136     0.11200
H1123       H  0.28769420  0.21843720  0.21652812     0.10900
H1124       H  0.32008111  0.17943910  0.23193165     0.07500
C1125       C  0.39184813  0.84797967  0.47531206    -0.11600
C1126       C  0.40105952  0.87226292  0.46427520     0.05500
C1127       C  0.42032821  0.86022591  0.45271216    -0.10400
C1128       C  0.42841321  0.82443165  0.45159777    -0.12000
C1129       C  0.41832075  0.79980234  0.46225468    -0.01800
C1130       C  0.40078624  0.81191798  0.47439006    -0.10900
C1131       C  0.38837236  0.90912624  0.46382326     0.05500
H1132       H  0.42876754  0.87844698  0.44432420     0.07500
H1133       H  0.44313705  0.81614069  0.44242896     0.10900
H1134       H  0.39348123  0.79347410  0.48291447     0.11200
H1135       H  0.37692454  0.85655854  0.48435422     0.07500
C1136       C  0.37893886  0.92352470  0.45030460    -0.11600
C1137       C  0.36489651  0.95700971  0.44956742    -0.10900
C1138       C  0.35931948  0.97679136  0.46236383    -0.01800
C1139       C  0.36973579  0.96321395  0.47588582    -0.12000
C1140       C  0.38422233  0.92953284  0.47661099    -0.10400
H1141       H  0.38115163  0.90829006  0.44026964     0.07500
H1142       H  0.35709358  0.96664177  0.43897424     0.11200
H1143       H  0.36567535  0.97798629  0.48592061     0.10900
H1144       H  0.39165028  0.91922398  0.48714531     0.07500
C1145       C  0.28385196  0.21765721  0.50292468    -0.11600
C1146       C  0.25944688  0.24030832  0.49791721     0.05500
C1147       C  0.24047759  0.22915989  0.48609287    -0.10400
C1148       C  0.24655483  0.19659977  0.47912812    -0.12000
C1149       C  0.27129799  0.17440527  0.48404934    -0.01800
C1150       C  0.28950732  0.18493431  0.49615571    -0.10900
C1151       C  0.25401731  0.27537067  0.50505774     0.05500
H1152       H  0.22108971  0.24566148  0.48216665     0.07500
H1153       H  0.23230060  0.18905132  0.46975038     0.10900
H1154       H  0.30922065  0.16869381  0.49995361     0.11200
H1155       H  0.29933293  0.22566362  0.51180404     0.07500
C1156       C  0.25791265  0.27878905  0.52025356    -0.11600
C1157       C  0.25254066  0.31139756  0.52712671    -0.10900
C1158       C  0.24251705  0.34131587  0.51903630    -0.01800
C1159       C  0.23908699  0.33826488  0.50380261    -0.12000
C1160       C  0.24499007  0.30559472  0.49685392    -0.10400
H1161       H  0.26423741  0.25598925  0.52695346     0.07500
H1162       H  0.25496760  0.31268005  0.53892724     0.11200
H1163       H  0.23123707  0.36085352  0.49732212     0.10900
H1164       H  0.24236465  0.30398518  0.48507786     0.07500
C1165       C  0.36984876  0.10668478  0.39032118    -0.11600
C1166       C  0.37188448  0.07435250  0.38251822     0.05500
C1167       C  0.35858966  0.04333741  0.38877408    -0.10400
C1168       C  0.34310728  0.04481085  0.40240394    -0.12000
C1169       C  0.34107907  0.07720906  0.41016231    -0.01800
C1170       C  0.35481606  0.10804670  0.40400772    -0.10900
C1171       C  0.38734394  0.07338611  0.36780878     0.05500
H1172       H  0.35959967  0.01809069  0.38298540     0.07500
H1173       H  0.33285524  0.02058617  0.40690924     0.10900
H1174       H  0.35357348  0.13342126  0.40969900     0.11200
H1175       H  0.38013984  0.13095210  0.38587656     0.07500
C1176       C  0.38142571  0.10074649  0.35761616    -0.11600
C1177       C  0.39624868  0.10054568  0.34388352    -0.10900
C1178       C  0.41753473  0.07305450  0.33997469    -0.01800
C1179       C  0.42333749  0.04547721  0.35011430    -0.12000
C1180       C  0.40828814  0.04557105  0.36386778    -0.10400
H1181       H  0.36508667  0.12226234  0.36023177     0.07500
H1182       H  0.39114072  0.12217848  0.33634742     0.11200
H1183       H  0.43962051  0.02394232  0.34745455     0.10900
H1184       H  0.41350221  0.02425422  0.37153574     0.07500
C1185       C  0.46128706  0.24451471  0.49338195    -0.11600
C1186       C  0.44034790  0.21952926  0.49965386     0.05500
C1187       C  0.43682140  0.21890402  0.51501879    -0.10400
C1188       C  0.45486038  0.24177787  0.52391111    -0.12000
C1189       C  0.47687943  0.26556473  0.51761116    -0.01800
C1190       C  0.47931345  0.26719331  0.50222947    -0.10900
C1191       C  0.42268649  0.19386953  0.49021596     0.05500
H1192       H  0.42042286  0.20040213  0.52016309     0.07500
H1193       H  0.45261914  0.23970364  0.53571734     0.10900
H1194       H  0.49609169  0.28515863  0.49700793     0.11200
H1195       H  0.46469573  0.24562238  0.48160953     0.07500
C1196       C  0.40899170  0.20505402  0.47692522    -0.11600
C1197       C  0.39032959  0.18153807  0.46865941    -0.10900
C1198       C  0.38517863  0.14625724  0.47343473    -0.01800
C1199       C  0.40063155  0.13445084  0.48620922    -0.12000
C1200       C  0.41902747  0.15802434  0.49452799    -0.10400
H1201       H  0.41142046  0.23244465  0.47327044     0.07500
H1202       H  0.37863737  0.19152403  0.45890589     0.11200
H1203       H  0.39706828  0.10753026  0.49025419     0.10900
H1204       H  0.42992566  0.14834014  0.50452357     0.07500
C1205       C  0.51003968  0.29788105  0.25208249    -0.11600
C1206       C  0.50224829  0.26760033  0.24365617     0.05500
C1207       C  0.49966932  0.27129006  0.22840144    -0.10400
C1208       C  0.50552014  0.30410575  0.22170101    -0.12000
C1209       C  0.51461795  0.33396334  0.23004830    -0.01800
C1210       C  0.51640058  0.33069815  0.24533075    -0.10900
C1211       C  0.49718322  0.23222154  0.25068363     0.05500
H1212       H  0.49416540  0.24855604  0.22153302     0.07500
H1213       H  0.50414814  0.30563765  0.20986896     0.10900
H1214       H  0.52330198  0.35326842  0.25203002     0.11200
H1215       H  0.51144707  0.29620853  0.26390149     0.07500
C1216       C  0.51511495  0.22209253  0.26300041    -0.11600
C1217       C  0.50910936  0.18970092  0.27008901    -0.10900
C1218       C  0.48542592  0.16653914  0.26486452    -0.01800
C1219       C  0.46860227  0.17571787  0.25214538    -0.12000
C1220       C  0.47422180  0.20834843  0.24519800    -0.10400
H1221       H  0.53358505  0.23934106  0.26727321     0.07500
H1222       H  0.52246740  0.18316410  0.27987113     0.11200
H1223       H  0.44988060  0.15856503  0.24800568     0.10900
H1224       H  0.45967807  0.21538049  0.23585258     0.07500
C1225       C  0.42219336  0.60948874  0.26162625    -0.11600
C1226       C  0.42128404  0.57200720  0.26311217     0.05500
C1227       C  0.40048599  0.55712613  0.27359291    -0.10400
C1228       C  0.37966685  0.57891499  0.28162480    -0.12000
C1229       C  0.37894501  0.61613069  0.27933818    -0.01800
C1230       C  0.40120990  0.63128682  0.26960127    -0.10900
C1231       C  0.44035646  0.54847308  0.25316473     0.05500
H1232       H  0.39896502  0.52846219  0.27502069     0.07500
H1233       H  0.36274424  0.56625747  0.28898667     0.10900
H1234       H  0.40141167  0.65981974  0.26762316     0.11200
H1235       H  0.43852363  0.62197456  0.25394553     0.07500
C1236       C  0.44439330  0.55751959  0.23829648    -0.11600
C1237       C  0.46184796  0.53539059  0.22884740    -0.10900
C1238       C  0.47565681  0.50353174  0.23397756    -0.01800
C1239       C  0.47118978  0.49410732  0.24877538    -0.12000
C1240       C  0.45379427  0.51630008  0.25824185    -0.10400
H1241       H  0.43382474  0.58160683  0.23390186     0.07500
H1242       H  0.46491695  0.54356236  0.21753382     0.11200
H1243       H  0.48179848  0.46999406  0.25314660     0.10900
H1244       H  0.45141684  0.50855543  0.26963780     0.07500
C1245       C  0.40200575  0.41734343  0.17199509    -0.11600
C1246       C  0.39272763  0.38184895  0.17499809     0.05500
C1247       C  0.41654050  0.35713162  0.17906504    -0.10400
C1248       C  0.44810167  0.36817320  0.18104932    -0.12000
C1249       C  0.45640604  0.40426240  0.17936268    -0.01800
C1250       C  0.43334589  0.42855054  0.17442107    -0.10900
C1251       C  0.35821212  0.37168366  0.17551902     0.05500
H1252       H  0.41063476  0.32969611  0.18166263     0.07500
H1253       H  0.46548481  0.34899061  0.18496721     0.10900
H1254       H  0.43935446  0.45647199  0.17287325     0.11200
H1255       H  0.38483142  0.43695387  0.16830480     0.07500
C1256       C  0.33498758  0.39699514  0.17974680    -0.11600
C1257       C  0.30337596  0.38677132  0.18222012    -0.10900
C1258       C  0.29430010  0.35087206  0.18089842    -0.01800
C1259       C  0.31690321  0.32570358  0.17612502    -0.12000
C1260       C  0.34838462  0.33608109  0.17323826    -0.10400
H1261       H  0.34137264  0.42446332  0.18197622     0.07500
H1262       H  0.28647843  0.40659684  0.18608272     0.11200
H1263       H  0.31036284  0.29783560  0.17493100     0.10900
H1264       H  0.36514879  0.31590759  0.16961187     0.07500
C1265       C  0.73233692  0.23094050  0.98555615    -0.11600
C1266       C  0.75178463  0.24388392  0.99687749     0.05500
C1267       C  0.77659389  0.22229279  0.00221603    -0.10400
C1268       C  0.78235390  0.18881557  0.99615849    -0.12000
C1269       C  0.76382172  0.17658730  0.98444994    -0.01800
C1270       C  0.73850166  0.19761515  0.97929818    -0.10900
C1271       C  0.74617728  0.27957506  0.00328668     0.05500
H1272       H  0.79230340  0.23173543  0.01077934     0.07500
H1273       H  0.80245748  0.17341145  0.00008267     0.10900
H1274       H  0.72398480  0.18862187  0.97021197     0.11200
H1275       H  0.71261287  0.24666689  0.98146581     0.07500
C1276       C  0.73716897  0.30883907  0.99449731    -0.11600
C1277       C  0.73043925  0.34199275  0.00088199    -0.10900
C1278       C  0.73258387  0.34600723  0.01609401    -0.01800
C1279       C  0.74297822  0.31728818  0.02473794    -0.12000
C1280       C  0.74952927  0.28438742  0.01843045    -0.10400
H1281       H  0.73490329  0.30595082  0.98273992     0.07500
H1282       H  0.72206895  0.36377984  0.99409015     0.11200
H1283       H  0.74472991  0.31988638  0.03654080     0.10900
H1284       H  0.75602103  0.26237214  0.02551890     0.07500
C1285       C  0.62466814  0.47944487  0.10648211    -0.11600
C1286       C  0.63398197  0.45459510  0.11731899     0.05500
C1287       C  0.65955497  0.43146150  0.11416945    -0.10400
C1288       C  0.67394549  0.43140077  0.10039095    -0.12000
C1289       C  0.66390610  0.45512695  0.08943631    -0.01800
C1290       C  0.63974409  0.47991451  0.09267977    -0.10900
C1291       C  0.61673813  0.45139256  0.13164882     0.05500
H1292       H  0.66836729  0.41292417  0.12232214     0.07500
H1293       H  0.69297504  0.41249244  0.09824064     0.10900
H1294       H  0.63162678  0.49847909  0.08437079     0.11200
H1295       H  0.60504511  0.49763501  0.10845467     0.07500
C1296       C  0.60362229  0.48143549  0.13876538    -0.11600
C1297       C  0.58789730  0.47776220  0.15229224    -0.10900
C1298       C  0.58544738  0.44411547  0.15909569    -0.01800
C1299       C  0.59839155  0.41418462  0.15201006    -0.12000
C1300       C  0.61342690  0.41768063  0.13841149    -0.10400
H1301       H  0.60588866  0.50783749  0.13401366     0.07500
H1302       H  0.57809096  0.50130807  0.15755465     0.11200
H1303       H  0.59629554  0.38783919  0.15685743     0.10900
H1304       H  0.62215533  0.39367423  0.13312890     0.07500
C1305       C  0.81686808  0.55570733  0.01535804    -0.11600
C1306       C  0.81590213  0.55492080  0.99993749     0.05500
C1307       C  0.79533201  0.53055921  0.99308106    -0.10400
C1308       C  0.77539630  0.50845537  0.00138241    -0.12000
C1309       C  0.77560885  0.50994867  0.01678314    -0.01800
C1310       C  0.79700464  0.53332895  0.02369847    -0.10900
C1311       C  0.83581762  0.57971463  0.99098385     0.05500
H1312       H  0.79383738  0.52940778  0.98124087     0.07500
H1313       H  0.75917702  0.49078979  0.99570328     0.10900
H1314       H  0.79759769  0.53523492  0.03554151     0.11200
H1315       H  0.83282776  0.57379595  0.02096022     0.07500
C1316       C  0.83951630  0.61569916  0.99509080    -0.11600
C1317       C  0.85892859  0.63872029  0.98687380    -0.10900
C1318       C  0.87523250  0.62623937  0.97438456    -0.01800
C1319       C  0.87068405  0.59055730  0.97001859    -0.12000
C1320       C  0.85118827  0.56760445  0.97819920    -0.10400
H1321       H  0.82754041  0.62601491  0.00473927     0.07500
H1322       H  0.86211945  0.66592776  0.99063603     0.11200
H1323       H  0.88319860  0.57990173  0.96057818     0.10900
H1324       H  0.84901053  0.54000858  0.97478433     0.07500
C1325       C  0.91136993  0.41102294  0.06556773    -0.11600
C1326       C  0.88939268  0.38525214  0.07052653     0.05500
C1327       C  0.90080707  0.35122811  0.07449490    -0.10400
C1328       C  0.93310087  0.34263958  0.07287761    -0.12000
C1329       C  0.95478351  0.36793694  0.06731923    -0.01800
C1330       C  0.94367374  0.40248468  0.06400788    -0.10900
C1331       C  0.85453948  0.39299251  0.07043943     0.05500
H1332       H  0.88463809  0.33092896  0.07857563     0.07500
H1333       H  0.94087016  0.31579664  0.07552914     0.10900
H1334       H  0.95970719  0.42255629  0.05961245     0.11200
H1335       H  0.90341770  0.43732095  0.06221475     0.07500
C1336       C  0.84287938  0.42719936  0.07398977    -0.11600
C1337       C  0.81055091  0.43541858  0.07224479    -0.10900
C1338       C  0.78914624  0.40958164  0.06694403    -0.01800
C1339       C  0.80050727  0.37493067  0.06407538    -0.12000
C1340       C  0.83279765  0.36676387  0.06576681    -0.10400
H1341       H  0.85887508  0.44787289  0.07782329     0.07500
H1342       H  0.80257249  0.46240407  0.07452936     0.11200
H1343       H  0.78472965  0.35448312  0.05985664     0.10900
H1344       H  0.84094071  0.34032181  0.06271179     0.07500
C1345       C  0.20792962  0.49799554  0.01153240    -0.11600
C1346       C  0.19446739  0.46555890  0.00678498     0.05500
C1347       C  0.19741042  0.45644687  0.99186427    -0.10400
C1348       C  0.21420338  0.47838703  0.98210534    -0.12000
C1349       C  0.22841374  0.51024417  0.98692799    -0.01800
C1350       C  0.22470727  0.52004519  0.00173221    -0.10900
C1351       C  0.17690042  0.44138468  0.01710955     0.05500
H1352       H  0.18661652  0.43230784  0.98765342     0.07500
H1353       H  0.21654639  0.46997492  0.97079576     0.10900
H1354       H  0.23544715  0.54434459  0.00584111     0.11200
H1355       H  0.20624279  0.50595405  0.02291567     0.07500
C1356       C  0.17784436  0.40405239  0.01513723    -0.11600
C1357       C  0.15734803  0.38162137  0.02301909    -0.10900
C1358       C  0.13598545  0.39579810  0.03335245    -0.01800
C1359       C  0.13709052  0.43258040  0.03640613    -0.12000
C1360       C  0.15723221  0.45522813  0.02830886    -0.10400
H1361       H  0.19341080  0.39220909  0.00698357     0.07500
H1362       H  0.15673726  0.35340084  0.02038245     0.11200
H1363       H  0.12024843  0.44429080  0.04406055     0.10900
H1364       H  0.15570748  0.48375583  0.03014179     0.07500
C1365       C  0.16674481  0.65225859  0.92034534    -0.11600
C1366       C  0.13964023  0.63175417  0.92379948     0.05500
C1367       C  0.14379390  0.59761911  0.92995677    -0.10400
C1368       C  0.17418494  0.58520793  0.93346473    -0.12000
C1369       C  0.20112910  0.60665052  0.93090190    -0.01800
C1370       C  0.19723468  0.63981484  0.92386408    -0.10900
C1371       C  0.10719747  0.64745073  0.92308257     0.05500
H1372       H  0.12341650  0.58135654  0.93294970     0.07500
H1373       H  0.17639255  0.55947326  0.93882018     0.10900
H1374       H  0.21760184  0.65679229  0.92162167     0.11200
H1375       H  0.16426037  0.67849993  0.91544870     0.07500
C1376       C  0.10191065  0.68227372  0.92833291    -0.11600
C1377       C  0.07096420  0.69438739  0.93104545    -0.10900
C1378       C  0.04469554  0.67189703  0.92858062    -0.01800
C1379       C  0.04981441  0.63828963  0.92210424    -0.12000
C1380       C  0.08079978  0.62619676  0.91936200    -0.10400
H1381       H  0.12171659  0.69922079  0.93141183     0.07500
H1382       H  0.06779236  0.72052177  0.93594451     0.11200
H1383       H  0.03000924  0.62052247  0.91990273     0.10900
H1384       H  0.08417872  0.59947831  0.91505563     0.07500
C1385       C  0.37524480  0.59609920  0.85887146    -0.11600
C1386       C  0.37784274  0.56616484  0.86809279     0.05500
C1387       C  0.39586891  0.53665347  0.86332877    -0.10400
C1388       C  0.41200698  0.53776059  0.84982623    -0.12000
C1389       C  0.40999333  0.56820193  0.84077412    -0.01800
C1390       C  0.39096255  0.59704907  0.84536969    -0.10900
C1391       C  0.36281239  0.56700870  0.88285577     0.05500
H1392       H  0.39826808  0.51325606  0.87024483     0.07500
H1393       H  0.42629800  0.51498918  0.84654079     0.10900
H1394       H  0.38871803  0.62080685  0.83865900     0.11200
H1395       H  0.36115517  0.61900633  0.86218397     0.07500
C1396       C  0.36681042  0.59726871  0.89175159    -0.11600
C1397       C  0.35138713  0.59979016  0.90527807    -0.10900
C1398       C  0.33126862  0.57224014  0.91023998    -0.01800
C1399       C  0.32776209  0.54147739  0.90150930    -0.12000
C1400       C  0.34361658  0.53877005  0.88797084    -0.10400
H1401       H  0.38182903  0.61918024  0.88817787     0.07500
H1402       H  0.35480620  0.62375944  0.91173845     0.11200
H1403       H  0.31261928  0.51968065  0.90508976     0.10900
H1404       H  0.34015949  0.51513217  0.88131076     0.07500
C1405       C  0.53106248  0.43614815  0.75946262    -0.11600
C1406       C  0.55188351  0.44993331  0.74871617     0.05500
C1407       C  0.55361421  0.48737515  0.74695624    -0.10400
C1408       C  0.53533021  0.51020002  0.75581893    -0.12000
C1409       C  0.51558896  0.49615302  0.76685553    -0.01800
C1410       C  0.51352972  0.45893585  0.76853290    -0.10900
C1411       C  0.57286778  0.42539826  0.74003520     0.05500
H1412       H  0.56958867  0.49915827  0.73899422     0.07500
H1413       H  0.53706525  0.53889032  0.75422909     0.10900
H1414       H  0.49776212  0.44739297  0.77666666     0.11200
H1415       H  0.52812929  0.40756932  0.76090085     0.07500
C1416       C  0.58451028  0.39371621  0.74642088    -0.11600
C1417       C  0.60614050  0.37196531  0.73894380    -0.10900
C1418       C  0.61742292  0.38155358  0.72498462    -0.01800
C1419       C  0.60511650  0.41246546  0.71829832    -0.12000
C1420       C  0.58281595  0.43395019  0.72568328    -0.10400
H1421       H  0.57820629  0.38639711  0.75751034     0.07500
H1422       H  0.61555024  0.34866641  0.74453826     0.11200
H1423       H  0.61340786  0.42055459  0.70756094     0.10900
H1424       H  0.57389497  0.45766147  0.72023127     0.07500
C1425       C  0.60139599  0.58641294  0.81747398    -0.11600
C1426       C  0.60717293  0.62141764  0.82244928     0.05500
C1427       C  0.58092189  0.64294304  0.82631397    -0.10400
C1428       C  0.54971653  0.63043722  0.82451420    -0.12000
C1429       C  0.54405078  0.59603774  0.81889142    -0.01800
C1430       C  0.57025318  0.57385949  0.81576469    -0.10900
C1431       C  0.64022787  0.63612290  0.82237075     0.05500
H1432       H  0.58446017  0.66980381  0.83041418     0.07500
H1433       H  0.53004458  0.64819652  0.82703864     0.10900
H1434       H  0.56674916  0.54729218  0.81133663     0.11200
H1435       H  0.62089403  0.56920989  0.81416528     0.07500
C1436       C  0.66652348  0.61408239  0.82553969    -0.11600
C1437       C  0.69767294  0.62642863  0.82339635    -0.10900
C1438       C  0.70329191  0.66118592  0.81810599    -0.01800
C1439       C  0.67712566  0.68394916  0.81578256    -0.12000
C1440       C  0.64596823  0.67155642  0.81786118    -0.10400
H1441       H  0.66304278  0.58690254  0.82931671     0.07500
H1442       H  0.71730964  0.60823107  0.82534609     0.11200
H1443       H  0.68063178  0.71087500  0.81170135     0.10900
H1444       H  0.62639856  0.68922237  0.81515852     0.07500
C1445       C  0.64482452  0.09735419  0.52046731    -0.11600
C1446       C  0.62786137  0.11147841  0.53244686     0.05500
C1447       C  0.62494285  0.09094385  0.54528654    -0.10400
C1448       C  0.63949969  0.05763553  0.54634128    -0.12000
C1449       C  0.65730026  0.04398499  0.53458707    -0.01800
C1450       C  0.65930654  0.06368519  0.52150108    -0.10900
C1451       C  0.61388874  0.14785890  0.53201538     0.05500
H1452       H  0.61240662  0.10122594  0.55478119     0.07500
H1453       H  0.63765335  0.04299452  0.55655974     0.10900
H1454       H  0.67321595  0.05380089  0.51233938     0.11200
H1455       H  0.64718569  0.11249738  0.51040474     0.07500
C1456       C  0.63083349  0.17707509  0.52611007    -0.11600
C1457       C  0.61873443  0.21194597  0.52739814    -0.10900
C1458       C  0.58971336  0.21792562  0.53471722    -0.01800
C1459       C  0.57236383  0.18843877  0.54004068    -0.12000
C1460       C  0.58417538  0.15393805  0.53863077    -0.10400
H1461       H  0.65390788  0.17311760  0.52099100     0.07500
H1462       H  0.63236159  0.23415811  0.52304991     0.11200
H1463       H  0.54946999  0.19195206  0.54540208     0.10900
H1464       H  0.57018988  0.13195050  0.54294762     0.07500
C1465       C  0.59364431  0.82534256  0.52329731    -0.11600
C1466       C  0.58611537  0.83320024  0.50857325     0.05500
C1467       C  0.59966342  0.86404946  0.50225245    -0.10400
C1468       C  0.62023829  0.88590327  0.51024042    -0.12000
C1469       C  0.62870001  0.87727822  0.52470381    -0.01800
C1470       C  0.61501150  0.84685541  0.53120241    -0.10900
C1471       C  0.56504101  0.80917853  0.49965014     0.05500
H1472       H  0.59542715  0.87082969  0.49091909     0.07500
H1473       H  0.63088393  0.90872753  0.50474942     0.10900
H1474       H  0.62117766  0.83943094  0.54228922     0.11200
H1475       H  0.58327849  0.80235093  0.52874107     0.07500
C1476       C  0.56372892  0.77200646  0.50227433    -0.11600
C1477       C  0.54431140  0.74970635  0.49374145    -0.10900
C1478       C  0.52633813  0.76380521  0.48213978    -0.01800
C1479       C  0.52778919  0.80072048  0.47939344    -0.12000
C1480       C  0.54649974  0.82311024  0.48811893    -0.10400
H1481       H  0.57796982  0.75992268  0.51078713     0.07500
H1482       H  0.54357900  0.72131299  0.49613412     0.11200
H1483       H  0.51366647  0.81250555  0.47073962     0.10900
H1484       H  0.54591038  0.85155371  0.48589528     0.07500
C1485       C  0.64375875  0.16149039  0.73049067    -0.11600
C1486       C  0.62843545  0.14612440  0.71839668     0.05500
C1487       C  0.62608240  0.16564438  0.70530353    -0.10400
C1488       C  0.63940372  0.19962151  0.70416961    -0.12000
C1489       C  0.65502134  0.21500476  0.71617014    -0.01800
C1490       C  0.65672016  0.19592532  0.72942807    -0.10900
C1491       C  0.61428129  0.11004549  0.71917427     0.05500
H1492       H  0.61447334  0.15420813  0.69581553     0.07500
H1493       H  0.63793290  0.21367009  0.69380877     0.10900
H1494       H  0.66905437  0.20708268  0.73877159     0.11200
H1495       H  0.64561349  0.14690487  0.74070676     0.07500
C1496       C  0.63230589  0.08007012  0.72346050    -0.11600
C1497       C  0.61945001  0.04551248  0.72223411    -0.10900
C1498       C  0.58854559  0.04083005  0.71667019    -0.01800
C1499       C  0.57022878  0.07112256  0.71314206    -0.12000
C1500       C  0.58293385  0.10524597  0.71437139    -0.10400
H1501       H  0.65665048  0.08331580  0.72716145     0.07500
H1502       H  0.63391844  0.02258418  0.72511180     0.11200
H1503       H  0.54601794  0.06845745  0.70917230     0.10900
H1504       H  0.56847097  0.12799579  0.71123237     0.07500
C1505       C  0.51058187  0.76950230  0.73217712    -0.11600
C1506       C  0.50737984  0.76859398  0.74745862     0.05500
C1507       C  0.51141539  0.80045316  0.75546788    -0.10400
C1508       C  0.51907149  0.83250333  0.74828646    -0.12000
C1509       C  0.52301740  0.83295410  0.73302398    -0.01800
C1510       C  0.51822739  0.80123688  0.72506494    -0.10900
C1511       C  0.50013247  0.73424112  0.75485258     0.05500
H1512       H  0.50869223  0.80054812  0.76727479     0.07500
H1513       H  0.52277782  0.85652607  0.75465431     0.10900
H1514       H  0.52099091  0.80072780  0.71325115     0.11200
H1515       H  0.50799948  0.74542933  0.72571661     0.07500
C1516       C  0.47810732  0.71034511  0.74866326    -0.11600
C1517       C  0.47134794  0.67781231  0.75546200    -0.10900
C1518       C  0.48624861  0.66859287  0.76868005    -0.01800
C1519       C  0.50859846  0.69219534  0.77479970    -0.12000
C1520       C  0.51557924  0.72468402  0.76791443    -0.10400
H1521       H  0.46549683  0.71717184  0.73870211     0.07500
H1522       H  0.45353094  0.66051403  0.75065791     0.11200
H1523       H  0.52032820  0.68577028  0.78503130     0.10900
H1524       H  0.53306010  0.74227890  0.77278100     0.07500
C1525       C  0.58805140  0.92687982  0.63317365    -0.11600
C1526       C  0.61483307  0.94893882  0.63094114     0.05500
C1527       C  0.62544753  0.97027930  0.64268954    -0.10400
C1528       C  0.61018735  0.96869012  0.65639270    -0.12000
C1529       C  0.58453833  0.94521896  0.65864479    -0.01800
C1530       C  0.57342929  0.92466646  0.64689764    -0.10900
C1531       C  0.63216107  0.94824758  0.61661044     0.05500
H1532       H  0.64614163  0.98731736  0.64145927     0.07500
H1533       H  0.61918502  0.98466249  0.66536993     0.10900
H1534       H  0.55334331  0.90678577  0.64836468     0.11200
H1535       H  0.57846421  0.91093410  0.62433096     0.07500
C1536       C  0.63444375  0.91615813  0.60861435    -0.11600
C1537       C  0.65050183  0.91498093  0.59520447    -0.10900
C1538       C  0.66528312  0.94567292  0.58950331    -0.01800
C1539       C  0.66337521  0.97777000  0.59746306    -0.12000
C1540       C  0.64681892  0.97910864  0.61083383    -0.10400
H1541       H  0.62430957  0.89158506  0.61282777     0.07500
H1542       H  0.65192638  0.88972339  0.58943537     0.11200
H1543       H  0.67447310  0.00189122  0.59329543     0.10900
H1544       H  0.64527302  0.00438531  0.61656217     0.07500
C1545       C  0.69866213  0.76993274  0.74414466    -0.11600
C1546       C  0.70257583  0.80738706  0.74487204     0.05500
C1547       C  0.72304098  0.82114258  0.75574477    -0.10400
C1548       C  0.73814907  0.79853335  0.76576965    -0.12000
C1549       C  0.73423956  0.76136577  0.76493313    -0.01800
C1550       C  0.71470622  0.74722919  0.75390545    -0.10900
C1551       C  0.68400641  0.83206442  0.73505306     0.05500
H1552       H  0.72786845  0.84950377  0.75651226     0.07500
H1553       H  0.75386292  0.81007847  0.77386998     0.10900
H1554       H  0.71158100  0.71854423  0.75293242     0.11200
H1555       H  0.68281726  0.75799616  0.73623303     0.07500
C1556       C  0.67273200  0.82116316  0.72117087    -0.11600
C1557       C  0.65126436  0.84258895  0.71321059    -0.10900
C1558       C  0.64102351  0.87556143  0.71888402    -0.01800
C1559       C  0.65473807  0.88788400  0.73196008    -0.12000
C1560       C  0.67543715  0.86640042  0.74000602    -0.10400
H1561       H  0.67943214  0.79544757  0.71666061     0.07500
H1562       H  0.64097177  0.83223678  0.70323032     0.11200
H1563       H  0.64735366  0.91321951  0.73666228     0.10900
H1564       H  0.68282013  0.87611396  0.75059283     0.07500
C1565       C  0.74328031  0.72947138  0.48736040    -0.11600
C1566       C  0.75829566  0.73748920  0.50068024     0.05500
C1567       C  0.77688654  0.71103245  0.50752982    -0.10400
C1568       C  0.78154805  0.67787696  0.50085814    -0.12000
C1569       C  0.76794069  0.67068978  0.48714981    -0.01800
C1570       C  0.74810891  0.69644592  0.48065017    -0.10900
C1571       C  0.75456500  0.77332201  0.50737771     0.05500
H1572       H  0.78893039  0.71642038  0.51776930     0.07500
H1573       H  0.79719711  0.65867511  0.50605351     0.10900
H1574       H  0.73723018  0.69160470  0.47008686     0.11200
H1575       H  0.72810902  0.74888668  0.48201896     0.07500
C1576       C  0.75334575  0.80436537  0.49863141    -0.11600
C1577       C  0.74784070  0.83784273  0.50498287    -0.10900
C1578       C  0.74415895  0.84081838  0.52019551    -0.01800
C1579       C  0.74666783  0.80999727  0.52894679    -0.12000
C1580       C  0.75152937  0.77663448  0.52261315    -0.10400
H1581       H  0.75629866  0.80273262  0.48685967     0.07500
H1582       H  0.74594851  0.86120418  0.49802738     0.11200
H1583       H  0.74331753  0.81135211  0.54071125     0.10900
H1584       H  0.75179616  0.75330736  0.52963683     0.07500
C1585       C  0.70713757  0.48659729  0.50877911    -0.11600
C1586       C  0.71167885  0.44933947  0.50760328     0.05500
C1587       C  0.73291713  0.43658743  0.49679975    -0.10400
C1588       C  0.74805750  0.46014226  0.48711546    -0.12000
C1589       C  0.74313536  0.49714177  0.48823811    -0.01800
C1590       C  0.72304924  0.51022730  0.49932999    -0.10900
C1591       C  0.69230606  0.42390849  0.51665890     0.05500
H1592       H  0.73787938  0.40827901  0.49575221     0.07500
H1593       H  0.76424522  0.44948419  0.47894366     0.10900
H1594       H  0.71918378  0.53874703  0.50050206     0.11200
H1595       H  0.69064301  0.49757593  0.51671854     0.07500
C1596       C  0.68142862  0.43294370  0.53083597    -0.11600
C1597       C  0.65853289  0.41177703  0.53803860    -0.10900
C1598       C  0.64631632  0.38107052  0.53122604    -0.01800
C1599       C  0.65961121  0.37021355  0.51778738    -0.12000
C1600       C  0.68200165  0.39141451  0.51055228    -0.10400
H1601       H  0.68949534  0.45722813  0.53610888     0.07500
H1602       H  0.64874924  0.42084612  0.54837239     0.11200
H1603       H  0.65083048  0.34655890  0.51224826     0.10900
H1604       H  0.68935144  0.38338753  0.49968025     0.07500
C1605       C  0.65073158  0.58913357  0.43469218    -0.11600
C1606       C  0.64563072  0.62275008  0.42818018     0.05500
C1607       C  0.67219884  0.64369375  0.42431121    -0.10400
C1608       C  0.70300876  0.63232869  0.42773576    -0.12000
C1609       C  0.70791322  0.59965403  0.43500300    -0.01800
C1610       C  0.68155738  0.57766567  0.43802873    -0.10900
C1611       C  0.61282546  0.63747105  0.42709998     0.05500
H1612       H  0.66911017  0.66941984  0.41904672     0.07500
H1613       H  0.72289864  0.64969353  0.42510908     0.10900
H1614       H  0.68459051  0.55229877  0.44359024     0.11200
H1615       H  0.63082857  0.57250291  0.43799220     0.07500
C1616       C  0.58673807  0.61512443  0.42399446    -0.11600
C1617       C  0.55551965  0.62766888  0.42566240    -0.10900
C1618       C  0.54983936  0.66283162  0.43040788    -0.01800
C1619       C  0.57588375  0.68590132  0.43244089    -0.12000
C1620       C  0.60701188  0.67334522  0.43084730    -0.10400
H1621       H  0.59045338  0.58753806  0.42082541     0.07500
H1622       H  0.53591457  0.60931564  0.42393969     0.11200
H1623       H  0.57231224  0.71317314  0.43608974     0.10900
H1624       H  0.62646785  0.69121762  0.43348898     0.07500
C1625       C  0.87956208  0.60815990  0.36008264    -0.11600
C1626       C  0.87868078  0.57720804  0.36882139     0.05500
C1627       C  0.89233589  0.54556381  0.36332537    -0.10400
C1628       C  0.90699373  0.54500233  0.34950679    -0.12000
C1629       C  0.90787299  0.57593952  0.34076108    -0.01800
C1630       C  0.89375711  0.60745996  0.34616846    -0.10900
C1631       C  0.86375997  0.57788529  0.38364893     0.05500
H1632       H  0.89223693  0.52137711  0.36985993     0.07500
H1633       H  0.91769080  0.52035645  0.34567436     0.10900
H1634       H  0.89419756  0.63183051  0.33974238     0.11200
H1635       H  0.86903234  0.63285351  0.36397782     0.07500
C1636       C  0.87027486  0.60584166  0.39348510    -0.11600
C1637       C  0.85664447  0.60605866  0.40752440    -0.10900
C1638       C  0.83592454  0.57850765  0.41200254    -0.01800
C1639       C  0.82923711  0.55072044  0.40210513    -0.12000
C1640       C  0.84310180  0.55034377  0.38812800    -0.10400
H1641       H  0.88629968  0.62727110  0.39038267     0.07500
H1642       H  0.86225316  0.62792540  0.41485667     0.11200
H1643       H  0.81325937  0.52921106  0.40515278     0.10900
H1644       H  0.83737049  0.52866332  0.38072897     0.07500
C1645       C  0.03487928  0.43921257  0.26080581    -0.11600
C1646       C  0.05627261  0.45362839  0.25038746     0.05500
C1647       C  0.05757541  0.49125016  0.24902214    -0.10400
C1648       C  0.03780933  0.51341356  0.25754808    -0.12000
C1649       C  0.01687252  0.49872816  0.26797900    -0.01800
C1650       C  0.01586228  0.46140633  0.26958803    -0.10900
C1651       C  0.07722470  0.42958168  0.24120960     0.05500
H1652       H  0.07403541  0.50380300  0.24148105     0.07500
H1653       H  0.03911734  0.54215702  0.25607773     0.10900
H1654       H  0.99952309  0.44925604  0.27733036     0.11200
H1655       H  0.03215085  0.41059349  0.26206783     0.07500
C1656       C  0.08669024  0.39569285  0.24643024    -0.11600
C1657       C  0.10699868  0.37368682  0.23821010    -0.10900
C1658       C  0.11925300  0.38502011  0.22463075    -0.01800
C1659       C  0.10952667  0.41848009  0.21919775    -0.12000
C1660       C  0.08852905  0.44024002  0.22727863    -0.10400
H1661       H  0.07951312  0.38642791  0.25715345     0.07500
H1662       H  0.11449904  0.34844335  0.24292514     0.11200
H1663       H  0.11870406  0.42819831  0.20884039     0.10900
H1664       H  0.08144118  0.46559893  0.22257503     0.07500
C1665       C  0.07852535  0.64257279  0.32714601    -0.11600
C1666       C  0.10434192  0.62036635  0.32329390     0.05500
C1667       C  0.09785736  0.58558723  0.31825677    -0.10400
C1668       C  0.06646644  0.57398172  0.31640834    -0.12000
C1669       C  0.04072127  0.59691334  0.31945006    -0.01800
C1670       C  0.04706481  0.63102409  0.32519789    -0.10900
C1671       C  0.13767414  0.63425816  0.32316916     0.05500
H1672       H  0.11701271  0.56788857  0.31496720     0.07500
H1673       H  0.06244712  0.54759874  0.31188438     0.10900
H1674       H  0.02775966  0.64931256  0.32767747     0.11200
H1675       H  0.08262375  0.66928464  0.33130081     0.07500
C1676       C  0.14400663  0.66945638  0.31853870    -0.11600
C1677       C  0.17534845  0.68111873  0.31637973    -0.10900
C1678       C  0.20115410  0.65785450  0.31873561    -0.01800
C1679       C  0.19497786  0.62329959  0.32412300    -0.12000
C1680       C  0.16360660  0.61167016  0.32634596    -0.10400
H1681       H  0.12473439  0.68750330  0.31581004     0.07500
H1682       H  0.17926652  0.70791420  0.31223296     0.11200
H1683       H  0.21433003  0.60475564  0.32611531     0.10900
H1684       H  0.15965099  0.58462469  0.33019338     0.07500
C1685       C  0.12269185  0.08398754  0.22754903    -0.11600
C1686       C  0.12272352  0.10652109  0.21520466     0.05500
C1687       C  0.10940324  0.09425573  0.20207707    -0.10400
C1688       C  0.09623874  0.06033599  0.20122235    -0.12000
C1689       C  0.09583692  0.03773552  0.21349744    -0.01800
C1690       C  0.10946552  0.04955610  0.22666924    -0.10900
C1691       C  0.13725926  0.14248384  0.21543883     0.05500
H1692       H  0.10877993  0.11121358  0.19244983     0.07500
H1693       H  0.08578752  0.05198021  0.19094001     0.10900
H1694       H  0.10895740  0.03271928  0.23632673     0.11200
H1695       H  0.13300941  0.09292496  0.23776570     0.07500
C1696       C  0.13001847  0.16755807  0.22644158    -0.11600
C1697       C  0.14173130  0.20266558  0.22543067    -0.10900
C1698       C  0.16041517  0.21294669  0.21332450    -0.01800
C1699       C  0.16814747  0.18741555  0.20261996    -0.12000
C1700       C  0.15693828  0.15265262  0.20372448    -0.10400
H1701       H  0.11471765  0.16026148  0.23554790     0.07500
H1702       H  0.13586595  0.22179415  0.23392702     0.11200
H1703       H  0.18331874  0.19415339  0.19339172     0.10900
H1704       H  0.16339829  0.13365273  0.19526326     0.07500
C1705       C  0.00365147  0.80596795  0.25604619    -0.11600
C1706       C  0.00020229  0.77375037  0.24821361     0.05500
C1707       C  0.00385361  0.77405720  0.23296011    -0.10400
C1708       C  0.01146171  0.80543052  0.22568805    -0.12000
C1709       C  0.01623798  0.83738464  0.23346085    -0.01800
C1710       C  0.01161950  0.83769895  0.24869217    -0.10900
C1711       C  0.99381054  0.73935364  0.25566995     0.05500
H1712       H  0.00193927  0.74971023  0.22661679     0.07500
H1713       H  0.01468806  0.80426721  0.21391521     0.10900
H1714       H  0.01525851  0.86198134  0.25491782     0.11200
H1715       H  0.00056626  0.80650643  0.26782678     0.07500
C1716       C  0.00910180  0.73059573  0.26885733    -0.11600
C1717       C  0.00407226  0.69723874  0.27537143    -0.10900
C1718       C  0.98392849  0.67203509  0.26871800    -0.01800
C1719       C  0.96900300  0.68067302  0.25546271    -0.12000
C1720       C  0.97363893  0.71406212  0.24909186    -0.10400
H1721       H  0.02514954  0.74934581  0.27404898     0.07500
H1722       H  0.01554419  0.69135713  0.28571177     0.11200
H1723       H  0.95266965  0.66217669  0.25029439     0.10900
H1724       H  0.96103051  0.72025036  0.23907237     0.07500
C1725       C  0.17068547  0.86000283  0.24214042    -0.11600
C1726       C  0.18023399  0.82655597  0.23659014     0.05500
C1727       C  0.16895390  0.81653705  0.22260403    -0.10400
C1728       C  0.14732059  0.83841297  0.21489457    -0.12000
C1729       C  0.13667757  0.87086440  0.22097338    -0.01800
C1730       C  0.14962786  0.88181186  0.23442117    -0.10900
C1731       C  0.20026093  0.80206444  0.24588319     0.05500
H1732       H  0.17613293  0.79135620  0.21775312     0.07500
H1733       H  0.13758003  0.82900419  0.20463622     0.10900
H1734       H  0.14192860  0.90656487  0.23949793     0.11200
H1735       H  0.17796405  0.86880909  0.25288855     0.07500
C1736       C  0.22152428  0.81622523  0.25632700    -0.11600
C1737       C  0.23773439  0.79397410  0.26612308    -0.10900
C1738       C  0.23412539  0.75674603  0.26548923    -0.01800
C1739       C  0.21411582  0.74214435  0.25472459    -0.12000
C1740       C  0.19701199  0.76452540  0.24516868    -0.10400
H1741       H  0.22587616  0.84471176  0.25698364     0.07500
H1742       H  0.25384209  0.80587378  0.27397201     0.11200
H1743       H  0.21126599  0.71339832  0.25388295     0.10900
H1744       H  0.18075884  0.75236549  0.23747968     0.07500
C1745       C  0.08463643  0.16255500  0.02934373    -0.11600
C1746       C  0.11746174  0.15760882  0.03129574     0.05500
C1747       C  0.13702823  0.18758234  0.03385887    -0.10400
C1748       C  0.12373306  0.22183972  0.03492744    -0.12000
C1749       C  0.09068333  0.22624711  0.03377889    -0.01800
C1750       C  0.07133094  0.19654998  0.03073865    -0.10900
C1751       C  0.13062535  0.12100680  0.03219017     0.05500
H1752       H  0.16248054  0.18430091  0.03538193     0.07500
H1753       H  0.13893465  0.24448776  0.03733008     0.10900
H1754       H  0.04571584  0.19962228  0.02975253     0.11200
H1755       H  0.06908963  0.13989672  0.02749372     0.07500
C1756       C  0.14936624  0.11165814  0.04424879    -0.11600
C1757       C  0.16157180  0.07725095  0.04554526    -0.10900
C1758       C  0.15565761  0.05128341  0.03473556    -0.01800
C1759       C  0.13614319  0.06022274  0.02280790    -0.12000
C1760       C  0.12355738  0.09489311  0.02158709    -0.10400
H1761       H  0.15440547  0.13098669  0.05275752     0.07500
H1762       H  0.17621014  0.07118271  0.05498948     0.11200
H1763       H  0.13137348  0.04084921  0.01429430     0.10900
H1764       H  0.10886032  0.10155971  0.01223476     0.07500
C1765       C  0.23573069  0.73548445  0.98251555    -0.11600
C1766       C  0.25385702  0.74701268  0.99452496     0.05500
C1767       C  0.27675192  0.72369662  0.00049646    -0.10400
C1768       C  0.28172854  0.68986100  0.99446917    -0.12000
C1769       C  0.26420240  0.67879182  0.98222642    -0.01800
C1770       C  0.24095543  0.70177223  0.97638760    -0.10900
C1771       C  0.24790987  0.78251116  0.00125084     0.05500
H1772       H  0.29137797  0.73190535  0.00965222     0.07500
H1773       H  0.30027409  0.67302395  0.99898917     0.10900
H1774       H  0.22719437  0.69392257  0.96689527     0.11200
H1775       H  0.21743519  0.75245538  0.97788658     0.07500
C1776       C  0.24068290  0.81283941  0.99267166    -0.11600
C1777       C  0.23243227  0.84538029  0.99934288    -0.10900
C1778       C  0.23119160  0.84780125  0.01465626    -0.01800
C1779       C  0.24005778  0.81800231  0.02312414    -0.12000
C1780       C  0.24812647  0.78580030  0.01653403    -0.10400
H1781       H  0.24086360  0.81120710  0.98082694     0.07500
H1782       H  0.22570627  0.86796509  0.99260242     0.11200
H1783       H  0.23963941  0.81916076  0.03499069     0.10900
H1784       H  0.25320913  0.76304669  0.02348092     0.07500
C1785       C  0.16451124  0.92880506  0.11470936    -0.11600
C1786       C  0.13984202  0.95299090  0.11806943     0.05500
C1787       C  0.13115305  0.97852662  0.10741782    -0.10400
C1788       C  0.14598108  0.97883555  0.09358541    -0.12000
C1789       C  0.16928839  0.95323073  0.09011820    -0.01800
C1790       C  0.17871883  0.92865139  0.10087147    -0.10900
C1791       C  0.12244399  0.95004883  0.13233806     0.05500
H1792       H  0.11212728  0.99740512  0.10956393     0.07500
H1793       H  0.13830574  0.99798233  0.08541481     0.10900
H1794       H  0.19706037  0.90903509  0.09851022     0.11200
H1795       H  0.17261703  0.90952935  0.12272924     0.07500
C1796       C  0.11670321  0.91619405  0.13855845    -0.11600
C1797       C  0.10039188  0.91279567  0.15184420    -0.10900
C1798       C  0.08901178  0.94311668  0.15929495    -0.01800
C1799       C  0.09460101  0.97706040  0.15313169    -0.12000
C1800       C  0.11114441  0.98049312  0.13980056    -0.10400
H1801       H  0.12432115  0.89204253  0.13302475     0.07500
H1802       H  0.09641551  0.88621541  0.15620311     0.11200
H1803       H  0.08620842  0.00097385  0.15861161     0.10900
H1804       H  0.11536826  0.00699261  0.13542849     0.07500
C1805       C  0.05648480  0.77835055  0.00320003    -0.11600
C1806       C  0.04996892  0.81539426  0.00351926     0.05500
C1807       C  0.02687044  0.82876782  0.99373436    -0.10400
C1808       C  0.01152849  0.80622659  0.98376597    -0.12000
C1809       C  0.01798432  0.76942394  0.98357759    -0.01800
C1810       C  0.04029957  0.75560453  0.99351237    -0.10900
C1811       C  0.06835437  0.84022000  0.01331709     0.05500
H1812       H  0.02019150  0.85673639  0.99381383     0.07500
H1813       H  0.99370029  0.81740020  0.97653499     0.10900
H1814       H  0.04545758  0.72719227  0.99367515     0.11200
H1815       H  0.07442336  0.76684781  0.01024728     0.07500
C1816       C  0.08176393  0.82854761  0.02667904    -0.11600
C1817       C  0.10280088  0.85054150  0.03458246    -0.10900
C1818       C  0.11062461  0.88477619  0.02935324    -0.01800
C1819       C  0.09500491  0.89754514  0.01680260    -0.12000
C1820       C  0.07448904  0.87561234  0.00884471    -0.10400
H1821       H  0.07701728  0.80189557  0.03079462     0.07500
H1822       H  0.11469168  0.83980408  0.04412185     0.11200
H1823       H  0.10061171  0.92380566  0.01244168     0.10900
H1824       H  0.06526881  0.88592043  0.99864864     0.07500
C1825       C  0.14690445  0.59775483  0.52424305    -0.11600
C1826       C  0.13442092  0.61406236  0.53686769     0.05500
C1827       C  0.13442536  0.59516372  0.55016344    -0.10400
C1828       C  0.14693719  0.56079230  0.55089823    -0.12000
C1829       C  0.15976003  0.54449970  0.53835358    -0.01800
C1830       C  0.15935444  0.56306507  0.52496172    -0.10900
C1831       C  0.12029140  0.65020617  0.53633865     0.05500
H1832       H  0.12519911  0.60727238  0.56008559     0.07500
H1833       H  0.14719303  0.54723535  0.56139753     0.10900
H1834       H  0.16956951  0.55126056  0.51518742     0.11200
H1835       H  0.14686872  0.61175668  0.51385174     0.07500
C1836       C  0.13582487  0.67893596  0.52934459    -0.11600
C1837       C  0.12254675  0.71339850  0.52978921    -0.10900
C1838       C  0.09366017  0.71932657  0.53724811    -0.01800
C1839       C  0.07806534  0.69020877  0.54391541    -0.12000
C1840       C  0.09115086  0.65619435  0.54343626    -0.10400
H1841       H  0.15847030  0.67485940  0.52384693     0.07500
H1842       H  0.13494388  0.73531296  0.52450266     0.11200
H1843       H  0.05546745  0.69355677  0.54954352     0.10900
H1844       H  0.07839679  0.63442092  0.54866180     0.07500
C1845       C  0.17776500  0.93940176  0.52825958    -0.11600
C1846       C  0.18874287  0.93048211  0.51407280     0.05500
C1847       C  0.17834019  0.89799183  0.50796238    -0.10400
C1848       C  0.15663740  0.87615774  0.51536491    -0.12000
C1849       C  0.14400990  0.88617758  0.52904806    -0.01800
C1850       C  0.15555996  0.91753993  0.53565018    -0.10900
C1851       C  0.20926831  0.95537684  0.50517370     0.05500
H1852       H  0.18545975  0.89011006  0.49704446     0.07500
H1853       H  0.14821799  0.85226393  0.50988369     0.10900
H1854       H  0.14610608  0.92622167  0.54610374     0.11200
H1855       H  0.18562410  0.96378527  0.53352278     0.07500
C1856       C  0.20652535  0.99286345  0.50651162    -0.11600
C1857       C  0.22400202  0.01583693  0.49730322    -0.10900
C1858       C  0.24393541  0.00193736  0.48629329    -0.01800
C1859       C  0.24709657  0.96471701  0.48506355    -0.12000
C1860       C  0.23044146  0.94182317  0.49449683    -0.10400
H1861       H  0.19032066  0.00454835  0.51439167     0.07500
H1862       H  0.22140736  0.04453474  0.49857876     0.11200
H1863       H  0.26303748  0.95329231  0.47698028     0.10900
H1864       H  0.23429194  0.91330904  0.49335582     0.07500
C1865       C  0.93661499  0.71671942  0.51692038    -0.11600
C1866       C  0.94015572  0.71535475  0.50158615     0.05500
C1867       C  0.96210091  0.73830450  0.49477716    -0.10400
C1868       C  0.98094764  0.76122107  0.50310460    -0.12000
C1869       C  0.97821410  0.76191285  0.51846720    -0.01800
C1870       C  0.95539037  0.73997123  0.52529209    -0.10900
C1871       C  0.92126357  0.68999582  0.49264567     0.05500
H1872       H  0.96544171  0.73771803  0.48299524     0.07500
H1873       H  0.99834372  0.77773470  0.49751511     0.10900
H1874       H  0.95293358  0.73975739  0.53712021     0.11200
H1875       H  0.91951751  0.69963853  0.52241162     0.07500
C1876       C  0.91745432  0.65427997  0.49707775    -0.11600
C1877       C  0.89848133  0.63088192  0.48894530    -0.10900
C1878       C  0.88263393  0.64289841  0.47629985    -0.01800
C1879       C  0.88763138  0.67818938  0.47153396    -0.12000
C1880       C  0.90683364  0.70145358  0.47958841    -0.10400
H1881       H  0.92882081  0.64458654  0.50696950     0.07500
H1882       H  0.89491811  0.60396399  0.49298586     0.11200
H1883       H  0.87554377  0.68835349  0.46191113     0.10900
H1884       H  0.90935294  0.72882124  0.47592481     0.07500
C1885       C  0.84146244  0.87523923  0.57268367    -0.11600
C1886       C  0.86492140  0.90220857  0.57321452     0.05500
C1887       C  0.85493764  0.93811473  0.57327314    -0.10400
C1888       C  0.82276416  0.94686663  0.57159587    -0.12000
C1889       C  0.79963396  0.91995851  0.57002420    -0.01800
C1890       C  0.80912841  0.88404294  0.57116787    -0.10900
C1891       C  0.89957437  0.89314215  0.57227563     0.05500
H1892       H  0.87214116  0.95959725  0.57409041     0.07500
H1893       H  0.81615556  0.97482477  0.57090920     0.10900
H1894       H  0.79187270  0.86272394  0.56990457     0.11200
H1895       H  0.84816939  0.84728889  0.57251850     0.07500
C1896       C  0.91178872  0.86194787  0.57881384    -0.11600
C1897       C  0.94353798  0.85168232  0.57647074    -0.10900
C1898       C  0.96392347  0.87258122  0.56768234    -0.01800
C1899       C  0.95218879  0.90452812  0.56168855    -0.12000
C1900       C  0.92039803  0.91455883  0.56387309    -0.10400
H1901       H  0.89666089  0.84508134  0.58552581     0.07500
H1902       H  0.95193220  0.82690265  0.58125293     0.11200
H1903       H  0.96713123  0.92090033  0.55467388     0.10900
H1904       H  0.91182166  0.93833178  0.55838107     0.07500
C1905       C  0.16195850  0.64844432  0.71328507    -0.11600
C1906       C  0.13254434  0.64454431  0.72040670     0.05500
C1907       C  0.11683091  0.67511067  0.72582004    -0.10400
C1908       C  0.13036046  0.70910986  0.72401178    -0.12000
C1909       C  0.15943069  0.71294630  0.71650280    -0.01800
C1910       C  0.17515178  0.68221137  0.71128659    -0.10900
C1911       C  0.11724488  0.60896983  0.72078139     0.05500
H1912       H  0.09402108  0.67265038  0.73134164     0.07500
H1913       H  0.11793008  0.73231132  0.72824475     0.10900
H1914       H  0.19784173  0.68417910  0.70562223     0.11200
H1915       H  0.17427735  0.62542677  0.70881068     0.07500
C1916       C  0.08588235  0.60530476  0.71580179    -0.11600
C1917       C  0.07266790  0.57147858  0.71397764    -0.10900
C1918       C  0.09037339  0.54052972  0.71724900    -0.01800
C1919       C  0.12125197  0.54410674  0.72291734    -0.12000
C1920       C  0.13472907  0.57814739  0.72453079    -0.10400
H1921       H  0.07205649  0.62855558  0.71269747     0.07500
H1922       H  0.04852576  0.56956577  0.70984344     0.11200
H1923       H  0.13520331  0.52069831  0.72566795     0.10900
H1924       H  0.15900912  0.58043738  0.72844700     0.07500
C1925       C  0.12078614  0.84638000  0.61028394    -0.11600
C1926       C  0.11780630  0.81531588  0.61886070     0.05500
C1927       C  0.10108220  0.78593631  0.61307337    -0.10400
C1928       C  0.08690964  0.78808198  0.59918962    -0.12000
C1929       C  0.08916744  0.81967053  0.59086932    -0.01800
C1930       C  0.10658026  0.84857778  0.59653435    -0.10900
C1931       C  0.13173110  0.81440127  0.63384778     0.05500
H1932       H  0.09824156  0.76167249  0.61942669     0.07500
H1933       H  0.07361287  0.76536949  0.59511909     0.10900
H1934       H  0.10913734  0.87316829  0.59035766     0.11200
H1935       H  0.13417453  0.86917175  0.61421005     0.07500
C1936       C  0.14726501  0.78376264  0.63926481    -0.11600
C1937       C  0.16215930  0.78435645  0.65301336    -0.10900
C1938       C  0.16184428  0.81563271  0.66156026    -0.01800
C1939       C  0.14538932  0.84575059  0.65631932    -0.12000
C1940       C  0.13043688  0.84508771  0.64270970    -0.10400
H1941       H  0.14878936  0.75973466  0.63268770     0.07500
H1942       H  0.17465315  0.76073497  0.65676100     0.11200
H1943       H  0.14428517  0.87014303  0.66269815     0.10900
H1944       H  0.11797456  0.86883700  0.63907524     0.07500
C1945       C  0.02703807  0.93645971  0.75854453    -0.11600
C1946       C  0.04846314  0.95033445  0.74805034     0.05500
C1947       C  0.05116007  0.98781955  0.74681256    -0.10400
C1948       C  0.03327004  0.01058499  0.75592450    -0.12000
C1949       C  0.01283462  0.99642552  0.76668943    -0.01800
C1950       C  0.00979930  0.95914299  0.76783189    -0.10900
C1951       C  0.06922386  0.92574169  0.73919089     0.05500
H1952       H  0.06764349  0.99962221  0.73906343     0.07500
H1953       H  0.03589374  0.03928601  0.75475897     0.10900
H1954       H  0.99357658  0.94749282  0.77576175     0.11200
H1955       H  0.02348161  0.90788507  0.75962399     0.07500
C1956       C  0.08063393  0.89389102  0.74547252    -0.11600
C1957       C  0.10227791  0.87218899  0.73798051    -0.10900
C1958       C  0.11377393  0.88170195  0.72400596    -0.01800
C1959       C  0.10130420  0.91253466  0.71730663    -0.12000
C1960       C  0.07921289  0.93429530  0.72481661    -0.10400
H1961       H  0.07416767  0.88643131  0.75653778     0.07500
H1962       H  0.11137829  0.84872428  0.74356171     0.11200
H1963       H  0.10981426  0.92080455  0.70662599     0.10900
H1964       H  0.07054685  0.95826878  0.71948175     0.07500
C1965       C  0.31475899  0.70384246  0.73439133    -0.11600
C1966       C  0.31554007  0.70830908  0.74971455     0.05500
C1967       C  0.29789737  0.73625910  0.75602494    -0.10400
C1968       C  0.27898206  0.75835965  0.74735933    -0.12000
C1969       C  0.27729591  0.75320021  0.73213822    -0.01800
C1970       C  0.29588722  0.72626375  0.72565954    -0.10900
C1971       C  0.33430128  0.68384177  0.75919978     0.05500
H1972       H  0.29777156  0.74029341  0.76778621     0.07500
H1973       H  0.26485803  0.77888625  0.75264018     0.10900
H1974       H  0.29472820  0.72152376  0.71395235     0.11200
H1975       H  0.32847854  0.68286556  0.72920230     0.07500
C1976       C  0.33494323  0.64684157  0.75651606    -0.11600
C1977       C  0.35349054  0.62412590  0.76520881    -0.10900
C1978       C  0.37182367  0.63798152  0.77676290    -0.01800
C1979       C  0.37004677  0.67475897  0.77981775    -0.12000
C1980       C  0.35158848  0.69741575  0.77112756    -0.10400
H1981       H  0.32134332  0.63548636  0.74757675     0.07500
H1982       H  0.35450999  0.59599198  0.76249378     0.11200
H1983       H  0.38421662  0.68643913  0.78849589     0.10900
H1984       H  0.35179401  0.72578115  0.77342735     0.07500
C1985       C  0.41440841  0.85476518  0.68589294    -0.11600
C1986       C  0.39323915  0.88072985  0.68041978     0.05500
C1987       C  0.40567340  0.91354158  0.67555781    -0.10400
C1988       C  0.43832683  0.92074324  0.67663449    -0.12000
C1989       C  0.45931823  0.89537153  0.68268547    -0.01800
C1990       C  0.44706770  0.86201638  0.68703218    -0.10900
C1991       C  0.35821441  0.87415870  0.68053450     0.05500
H1992       H  0.39003123  0.93389288  0.67113666     0.07500
H1993       H  0.44693247  0.94674643  0.67321057     0.10900
H1994       H  0.46248442  0.84205332  0.69190633     0.11200
H1995       H  0.40551773  0.82937680  0.68989214     0.07500
C1996       C  0.34600517  0.84064174  0.67650904    -0.11600
C1997       C  0.31349584  0.83315794  0.67803600    -0.10900
C1998       C  0.29234630  0.85893322  0.68372826    -0.01800
C1999       C  0.30429441  0.89304965  0.68713614    -0.12000
C2000       C  0.33687363  0.90060850  0.68551384    -0.10400
H2001       H  0.36175365  0.81990303  0.67244993     0.07500
H2002       H  0.30517286  0.80658940  0.67530119     0.11200
H2003       H  0.28874420  0.91340443  0.69166263     0.10900
H2004       H  0.34559892  0.92662159  0.68881925     0.07500
C2005       C  0.33839990  0.40904125  0.95356349    -0.11600
C2006       C  0.36269196  0.40034210  0.96346983     0.05500
C2007       C  0.37369420  0.42690903  0.97317225    -0.10400
C2008       C  0.36089106  0.46163730  0.97272733    -0.12000
C2009       C  0.33738346  0.47025909  0.96240357    -0.01800
C2010       C  0.32620486  0.44350072  0.95293771    -0.10900
C2011       C  0.37680513  0.36389738  0.96309766     0.05500
H2012       H  0.39255393  0.42105183  0.98088049     0.07500
H2013       H  0.36966710  0.48176867  0.98021244     0.10900
H2014       H  0.30743582  0.44903119  0.94512243     0.11200
H2015       H  0.32862136  0.38909767  0.94625698     0.07500
C2016       C  0.38570928  0.34589712  0.97599041    -0.11600
C2017       C  0.39894053  0.31147953  0.97529061    -0.10900
C2018       C  0.40346982  0.29459194  0.96168722    -0.01800
C2019       C  0.39402131  0.31242631  0.94888108    -0.12000
C2020       C  0.38111147  0.34662941  0.94956626    -0.10400
H2021       H  0.38241868  0.35836626  0.98658468     0.07500
H2022       H  0.40640945  0.29853659  0.98532507     0.11200
H2023       H  0.39745419  0.30036201  0.93820544     0.10900
H2024       H  0.37517485  0.35989395  0.93938552     0.07500
C2025       C  0.52837091  0.32549828  0.99269681    -0.11600
C2026       C  0.55077604  0.31185098  0.00273932     0.05500
C2027       C  0.55591268  0.27455756  0.00301119    -0.10400
C2028       C  0.53912053  0.25182302  0.99354283    -0.12000
C2029       C  0.51757635  0.26592114  0.98330993    -0.01800
C2030       C  0.51243179  0.30294195  0.98297386    -0.10900
C2031       C  0.56983716  0.33670686  0.01217580     0.05500
H2032       H  0.57324157  0.26290888  0.01033684     0.07500
H2033       H  0.54324221  0.22321499  0.99408860     0.10900
H2034       H  0.49522918  0.31435106  0.97549467     0.11200
H2035       H  0.52277722  0.35376266  0.99236783     0.07500
C2036       C  0.57783218  0.37095890  0.00694307    -0.11600
C2037       C  0.59821793  0.39316205  0.01479777    -0.10900
C2038       C  0.61194281  0.38174846  0.02801367    -0.01800
C2039       C  0.60264406  0.34854523  0.03383529    -0.12000
C2040       C  0.58169379  0.32626846  0.02600487    -0.10400
H2041       H  0.56996515  0.38009344  0.99632179     0.07500
H2042       H  0.60505295  0.41853738  0.00995378     0.11200
H2043       H  0.61316169  0.33882173  0.04388583     0.10900
H2044       H  0.57561363  0.30042227  0.03059758     0.07500
C2045       C  0.64838945  0.09668290  0.93249171    -0.11600
C2046       C  0.64362261  0.13069874  0.92634883     0.05500
C2047       C  0.67028326  0.15172808  0.92271577    -0.10400
C2048       C  0.70106446  0.13965784  0.92586395    -0.12000
C2049       C  0.70563059  0.10637469  0.93270001    -0.01800
C2050       C  0.67904478  0.08462943  0.93560865    -0.10900
C2051       C  0.61093103  0.14543873  0.92549794     0.05500
H2052       H  0.66724778  0.17794977  0.91786956     0.07500
H2053       H  0.72114802  0.15691634  0.92344732     0.10900
H2054       H  0.68176373  0.05889367  0.94091668     0.11200
H2055       H  0.62831998  0.08013389  0.93566519     0.07500
C2056       C  0.58521830  0.12346728  0.92150187    -0.11600
C2057       C  0.55388335  0.13494081  0.92369408    -0.10900
C2058       C  0.54775376  0.16862979  0.92988616    -0.01800
C2059       C  0.57343126  0.19167632  0.93277113    -0.12000
C2060       C  0.60473515  0.18016311  0.93061907    -0.10400
H2061       H  0.58937282  0.09676878  0.91731790     0.07500
H2062       H  0.53455281  0.11673033  0.92123386     0.11200
H2063       H  0.56945402  0.21784496  0.93751899     0.10900
H2064       H  0.62404742  0.19756864  0.93392618     0.07500
C2065       C  0.31755447  0.05320853  0.01311489    -0.11600
C2066       C  0.31457053  0.05306433  0.99775879     0.05500
C2067       C  0.29247310  0.02985392  0.99128580    -0.10400
C2068       C  0.27274379  0.00845097  0.99998882    -0.12000
C2069       C  0.27485056  0.00955044  0.01537696    -0.01800
C2070       C  0.29796581  0.03153212  0.02184032    -0.10900
C2071       C  0.33393122  0.07769633  0.98858467     0.05500
H2072       H  0.28962225  0.02920734  0.97948405     0.07500
H2073       H  0.25522047  0.99172903  0.99466555     0.10900
H2074       H  0.30010465  0.03299402  0.03365757     0.11200
H2075       H  0.33480172  0.07039343  0.01836834     0.07500
C2076       C  0.33800597  0.11348668  0.99282291    -0.11600
C2077       C  0.35786817  0.13624985  0.98479053    -0.10900
C2078       C  0.37435817  0.12360522  0.97239981    -0.01800
C2079       C  0.36902585  0.08828617  0.96772739    -0.12000
C2080       C  0.34887734  0.06559242  0.97570181    -0.10400
H2081       H  0.32621661  0.12373437  0.00254175     0.07500
H2082       H  0.36154195  0.16320441  0.98873096     0.11200
H2083       H  0.38152688  0.07767281  0.95826284     0.10900
H2084       H  0.34610270  0.03816970  0.97216499     0.07500
C2085       C  0.35432517  0.34219462  0.77342458    -0.11600
C2086       C  0.36873958  0.35775046  0.78576208     0.05500
C2087       C  0.37406874  0.33640363  0.79821551    -0.10400
C2088       C  0.36331469  0.30116802  0.79871138    -0.12000
C2089       C  0.34762803  0.28622587  0.78665117    -0.01800
C2090       C  0.34402378  0.30662737  0.77384415    -0.10900
C2091       C  0.37764929  0.39619467  0.78593065     0.05500
H2092       H  0.38604315  0.34713814  0.80773538     0.07500
H2093       H  0.36642004  0.28589284  0.80869184     0.10900
H2094       H  0.33149345  0.29580034  0.76448319     0.11200
H2095       H  0.34973370  0.35789227  0.76369279     0.07500
C2096       C  0.39046705  0.41295094  0.77342636    -0.11600
C2097       C  0.40170991  0.44811816  0.77418809    -0.10900
C2098       C  0.40058984  0.46693584  0.78748928    -0.01800
C2099       C  0.38606424  0.45099140  0.79971573    -0.12000
C2100       C  0.37446911  0.41614100  0.79890889    -0.10400
H2101       H  0.39328968  0.39837670  0.76326864     0.07500
H2102       H  0.41306415  0.45974884  0.76462512     0.11200
H2103       H  0.38465699  0.46504787  0.81006533     0.10900
H2104       H  0.36369266  0.40450553  0.80860100     0.07500
C2105       C  0.23719018  0.02662340  0.76765295    -0.11600
C2106       C  0.25815307  0.01282578  0.75702180     0.05500
C2107       C  0.28369840  0.03404070  0.75208049    -0.10400
C2108       C  0.28806487  0.06840529  0.75752147    -0.12000
C2109       C  0.26739570  0.08196272  0.76825228    -0.01800
C2110       C  0.24196812  0.06085128  0.77332448    -0.10900
C2111       C  0.25238705  0.97743276  0.75034664     0.05500
H2112       H  0.30065048  0.02388216  0.74412189     0.07500
H2113       H  0.30852007  0.08370483  0.75384747     0.10900
H2114       H  0.22607098  0.07068272  0.78180655     0.11200
H2115       H  0.21701507  0.01113225  0.77148339     0.07500
C2116       C  0.24100149  0.94829995  0.75865716    -0.11600
C2117       C  0.23287866  0.91611830  0.75176628    -0.10900
C2118       C  0.23596683  0.91303202  0.73653013    -0.01800
C2119       C  0.24894423  0.94141808  0.72842675    -0.12000
C2120       C  0.25689049  0.97327721  0.73522095    -0.10400
H2121       H  0.23769796  0.95069930  0.77039336     0.07500
H2122       H  0.22262419  0.89457166  0.75815560     0.11200
H2123       H  0.25154715  0.93955132  0.71662561     0.10900
H2124       H  0.26510544  0.99522730  0.72846373     0.07500
C2125       C  0.37228602  0.15586083  0.85803464    -0.11600
C2126       C  0.36856265  0.18572865  0.86719827     0.05500
C2127       C  0.34925172  0.21421249  0.86252653    -0.10400
C2128       C  0.33366339  0.21268773  0.84900684    -0.12000
C2129       C  0.33742168  0.18282308  0.83981387    -0.01800
C2130       C  0.35704734  0.15450819  0.84445661    -0.10900
C2131       C  0.38456140  0.18689819  0.88164875     0.05500
H2132       H  0.34579380  0.23739735  0.86945728     0.07500
H2133       H  0.31867280  0.23487372  0.84575725     0.10900
H2134       H  0.36040357  0.13107442  0.83765234     0.11200
H2135       H  0.38723904  0.13366544  0.86133754     0.07500
C2136       C  0.38300421  0.15731786  0.89109678    -0.11600
C2137       C  0.39827188  0.15810531  0.90466032    -0.10900
C2138       C  0.41579682  0.18833946  0.90902100    -0.01800
C2139       C  0.41733991  0.21798198  0.89957198    -0.12000
C2140       C  0.40166654  0.21734942  0.88605059    -0.10400
H2141       H  0.36973927  0.13365350  0.88802067     0.07500
H2142       H  0.39663903  0.13477088  0.91166974     0.11200
H2143       H  0.43065842  0.24161128  0.90261990     0.10900
H2144       H  0.40337946  0.24041050  0.87890313     0.07500
C2145       C  0.21380925  0.26948804  0.74050093    -0.11600
C2146       C  0.20002919  0.30122381  0.74590455     0.05500
C2147       C  0.20379152  0.30911335  0.76090274    -0.10400
C2148       C  0.22098926  0.28626609  0.77013833    -0.12000
C2149       C  0.23473505  0.25464758  0.76471682    -0.01800
C2150       C  0.23084674  0.24650055  0.74977678    -0.10900
C2151       C  0.18083547  0.32541223  0.73619813     0.05500
H2152       H  0.19303310  0.33273940  0.76562587     0.07500
H2153       H  0.22363261  0.29352169  0.78156049     0.10900
H2154       H  0.24147407  0.22263286  0.74516731     0.11200
H2155       H  0.21187377  0.26257340  0.72902046     0.07500
C2156       C  0.17989754  0.36257379  0.73872521    -0.11600
C2157       C  0.15832227  0.38446401  0.73120372    -0.10900
C2158       C  0.13773787  0.37001357  0.72065287    -0.01800
C2159       C  0.14038944  0.33353549  0.71721509    -0.12000
C2160       C  0.16151868  0.31142320  0.72495917    -0.10400
H2161       H  0.19502098  0.37466732  0.74693421     0.07500
H2162       H  0.15662317  0.41245944  0.73413214     0.11200
H2163       H  0.12423869  0.32150964  0.70939665     0.10900
H2164       H  0.16119283  0.28302359  0.72273027     0.07500
C2165       C  0.10371165  0.07985152  0.81776076    -0.11600
C2166       C  0.11034690  0.11411342  0.82327456     0.05500
C2167       C  0.08488842  0.13583283  0.82790461    -0.10400
C2168       C  0.05337887  0.12452608  0.82616013    -0.12000
C2169       C  0.04667721  0.09124211  0.81973939    -0.01800
C2170       C  0.07217758  0.06852974  0.81600206    -0.10900
C2171       C  0.14325292  0.12863112  0.82261362     0.05500
H2172       H  0.08935206  0.16216046  0.83238853     0.07500
H2173       H  0.03428311  0.14254476  0.82924073     0.10900
H2174       H  0.06780705  0.04272748  0.81100943     0.11200
H2175       H  0.12282711  0.06264895  0.81398817     0.07500
C2176       C  0.16970421  0.10747773  0.82637348    -0.11600
C2177       C  0.20073731  0.12018691  0.82408004    -0.10900
C2178       C  0.20585624  0.15421627  0.81791179    -0.01800
C2179       C  0.17936818  0.17578293  0.81467710    -0.12000
C2180       C  0.14845728  0.16314382  0.81699967    -0.10400
H2181       H  0.16635704  0.08084626  0.83079965     0.07500
H2182       H  0.22067236  0.10290490  0.82666970     0.11200
H2183       H  0.18245274  0.20197521  0.80979888     0.10900
H2184       H  0.12858102  0.17982107  0.81375247     0.07500
C2185       C  0.39983366  0.05333539  0.77091005    -0.11600
C2186       C  0.41543194  0.06557344  0.75820792     0.05500
C2187       C  0.41335117  0.10203651  0.75457564    -0.10400
C2188       C  0.39520233  0.12550357  0.76318231    -0.12000
C2189       C  0.37854428  0.11294695  0.77556901    -0.01800
C2190       C  0.38158643  0.07670536  0.77946412    -0.10900
C2191       C  0.43411224  0.04039623  0.74892613     0.05500
H2192       H  0.42559119  0.11237500  0.74498410     0.07500
H2193       H  0.39310772  0.15311421  0.75976842     0.10900
H2194       H  0.36872526  0.06597302  0.78880635     0.11200
H2195       H  0.40085179  0.02539897  0.77396192     0.07500
C2196       C  0.45429137  0.01512761  0.75548034    -0.11600
C2197       C  0.47343972  0.99285151  0.74690684    -0.10900
C2198       C  0.47280149  0.99510171  0.73152890    -0.01800
C2199       C  0.45154303  0.01917412  0.72490130    -0.12000
C2200       C  0.43247729  0.04177439  0.73352506    -0.10400
H2201       H  0.45621587  0.01349839  0.76730513     0.07500
H2202       H  0.48957340  0.97463891  0.75235219     0.11200
H2203       H  0.45069093  0.02167398  0.71307020     0.10900
H2204       H  0.41677107  0.06060650  0.72817942     0.07500
C2205       C  0.61272029  0.67792974  0.22004340    -0.11600
C2206       C  0.63000731  0.64763001  0.21544144     0.05500
C2207       C  0.66152729  0.65174493  0.21064732    -0.10400
C2208       C  0.67525456  0.68542281  0.20990995    -0.12000
C2209       C  0.65789754  0.71604380  0.21397613    -0.01800
C2210       C  0.62664706  0.71207459  0.21933339    -0.10900
C2211       C  0.61539156  0.61172312  0.21483633     0.05500
H2212       H  0.67554119  0.62878115  0.20731686     0.07500
H2213       H  0.69964554  0.68744021  0.20602886     0.10900
H2214       H  0.61284744  0.73526295  0.22256559     0.11200
H2215       H  0.58825800  0.67528075  0.22374394     0.07500
C2216       C  0.59861398  0.59750123  0.22683906    -0.11600
C2217       C  0.58607122  0.56282272  0.22615386    -0.10900
C2218       C  0.58972785  0.54232107  0.21336615    -0.01800
C2219       C  0.60652613  0.55662747  0.20141909    -0.12000
C2220       C  0.61934222  0.59087353  0.20217024    -0.10400
H2221       H  0.59546897  0.61306944  0.23673501     0.07500
H2222       H  0.57263018  0.55250640  0.23539015     0.11200
H2223       H  0.60937446  0.54144799  0.19139235     0.10900
H2224       H  0.63198733  0.60135424  0.19272627     0.07500
C2225       C  0.57336353  0.89215002  0.23819283    -0.11600
C2226       C  0.56751934  0.92778631  0.23401861     0.05500
C2227       C  0.58167733  0.94023129  0.22089607    -0.10400
C2228       C  0.60288203  0.91851091  0.21286015    -0.12000
C2229       C  0.61021133  0.88383075  0.21773658    -0.01800
C2230       C  0.59411738  0.87053542  0.23013102    -0.10900
C2231       C  0.54847749  0.95196369  0.24387802     0.05500
H2232       H  0.57728889  0.96720203  0.21707403     0.07500
H2233       H  0.61524179  0.92972570  0.20349512     0.10900
H2234       H  0.59942425  0.84400951  0.23426631     0.11200
H2235       H  0.56358240  0.88136061  0.24823699     0.07500
C2236       C  0.52417702  0.93804487  0.25297436    -0.11600
C2237       C  0.50812786  0.95984682  0.26304850    -0.10900
C2238       C  0.51517215  0.99640189  0.26401887    -0.01800
C2239       C  0.53864580  0.01082763  0.25474944    -0.12000
C2240       C  0.55547778  0.98879033  0.24495559    -0.10400
H2241       H  0.51721925  0.91022788  0.25227704     0.07500
H2242       H  0.48942854  0.94835721  0.26978315     0.11200
H2243       H  0.54424491  0.03909785  0.25523128     0.10900
H2244       H  0.57430493  0.00059201  0.23842955     0.07500
C2245       C  0.84577452  0.70004655  0.27175130    -0.11600
C2246       C  0.83157123  0.68838595  0.25866024     0.05500
C2247       C  0.83568689  0.65249380  0.25445418    -0.10400
C2248       C  0.85467294  0.62930839  0.26275445    -0.12000
C2249       C  0.87017488  0.64145031  0.27545079    -0.01800
C2250       C  0.86490389  0.67691151  0.28001748    -0.10900
C2251       C  0.81282691  0.71354085  0.24934032     0.05500
H2252       H  0.82453421  0.64241778  0.24461259     0.07500
H2253       H  0.85833208  0.60227041  0.25884526     0.10900
H2254       H  0.87666408  0.68728252  0.28965823     0.11200
H2255       H  0.84318125  0.72752354  0.27530765     0.07500
C2256       C  0.79192315  0.73844489  0.25574585    -0.11600
C2257       C  0.77295453  0.76056786  0.24700635    -0.10900
C2258       C  0.77452301  0.75859270  0.23162102    -0.01800
C2259       C  0.79641854  0.73486850  0.22518050    -0.12000
C2260       C  0.81527343  0.71248911  0.23394421    -0.10400
H2261       H  0.78933564  0.73993709  0.26753633     0.07500
H2262       H  0.75632633  0.77857932  0.25232707     0.11200
H2263       H  0.79807428  0.73258491  0.21337593     0.10900
H2264       H  0.83158839  0.69408812  0.22866139     0.07500
C2265       C  0.83662096  0.90153425  0.18191239    -0.11600
C2266       C  0.85791960  0.87494040  0.17697831     0.05500
C2267       C  0.84555852  0.84128622  0.17319608    -0.10400
C2268       C  0.81312341  0.83377419  0.17508384    -0.12000
C2269       C  0.79217806  0.85971154  0.18081830    -0.01800
C2270       C  0.80412979  0.89401025  0.18380509    -0.10900
C2271       C  0.89303338  0.88150320  0.17693311     0.05500
H2272       H  0.86112230  0.82041375  0.16910983     0.07500
H2273       H  0.80471459  0.80709354  0.17258155     0.10900
H2274       H  0.78869703  0.91454589  0.18827317     0.11200
H2275       H  0.84530019  0.92766817  0.18506442     0.07500
C2276       C  0.90535612  0.91520606  0.17312772    -0.11600
C2277       C  0.93772345  0.92287006  0.17502584    -0.10900
C2278       C  0.95866450  0.89702457  0.18076971    -0.01800
C2279       C  0.94679128  0.86262225  0.18373050    -0.12000
C2280       C  0.91434624  0.85495578  0.18183993    -0.10400
H2281       H  0.88979242  0.93603465  0.16904732     0.07500
H2282       H  0.94606652  0.94961824  0.17254817     0.11200
H2283       H  0.96220504  0.84216362  0.18823306     0.10900
H2284       H  0.90569121  0.82877550  0.18500123     0.07500
C2285       C  0.58593122  0.65415156  0.03417557    -0.11600
C2286       C  0.61337438  0.65032983  0.02554964     0.05500
C2287       C  0.62771534  0.68084250  0.01936021    -0.10400
C2288       C  0.61498591  0.71480212  0.02200176    -0.12000
C2289       C  0.58799587  0.71856951  0.03099595    -0.01800
C2290       C  0.57344552  0.68786336  0.03690634    -0.10900
C2291       C  0.62899660  0.61513174  0.02479309     0.05500
H2292       H  0.64902196  0.67840199  0.01268225     0.07500
H2293       H  0.62639792  0.73799540  0.01719143     0.10900
H2294       H  0.55234458  0.68978669  0.04375242     0.11200
H2295       H  0.57484128  0.63117121  0.03931904     0.07500
C2296       C  0.66150239  0.61265689  0.02808731    -0.11600
C2297       C  0.67540211  0.57946269  0.03038926    -0.10900
C2298       C  0.65716844  0.54812471  0.02930021    -0.01800
C2299       C  0.62518118  0.55019233  0.02500830    -0.12000
C2300       C  0.61104410  0.58366237  0.02289524    -0.10400
H2301       H  0.67574335  0.63643693  0.02975713     0.07500
H2302       H  0.70038950  0.57832956  0.03337949     0.11200
H2303       H  0.61091035  0.52621211  0.02395753     0.10900
H2304       H  0.58587769  0.58507784  0.02027874     0.07500
C2305       C  0.50657087  0.98752658  0.01615757    -0.11600
C2306       C  0.50502421  0.98956857  0.00085409     0.05500
C2307       C  0.51006530  0.95834021  0.99252214    -0.10400
C2308       C  0.51749934  0.92589893  0.99944369    -0.12000
C2309       C  0.52015026  0.92452859  0.01474742    -0.01800
C2310       C  0.51386856  0.95544807  0.02299751    -0.10900
C2311       C  0.49907096  0.02465654  0.99385166     0.05500
H2312       H  0.50858795  0.95912247  0.98067807     0.07500
H2313       H  0.52230161  0.90242031  0.99287015     0.10900
H2314       H  0.51550426  0.95516076  0.03484801     0.11200
H2315       H  0.50324242  0.01105492  0.02288197     0.07500
C2316       C  0.47715853  0.04869162  0.00013224    -0.11600
C2317       C  0.47227134  0.08233744  0.99397434    -0.10900
C2318       C  0.48886189  0.09251485  0.98127080    -0.01800
C2319       C  0.51103655  0.06871109  0.97504069    -0.12000
C2320       C  0.51619070  0.03511334  0.98130930    -0.10400
H2321       H  0.46325933  0.04121361  0.00968659     0.07500
H2322       H  0.45448259  0.09974736  0.99880026     0.11200
H2323       H  0.52395586  0.07581410  0.96514984     0.10900
H2324       H  0.53363383  0.01742433  0.97639906     0.07500
C2325       C  0.63656901  0.77961058  0.13912727    -0.11600
C2326       C  0.63681895  0.80929214  0.12959230     0.05500
C2327       C  0.65407399  0.83985171  0.13378107    -0.10400
C2328       C  0.66891038  0.84168559  0.14740046    -0.12000
C2329       C  0.66760607  0.81276017  0.15719804    -0.01800
C2330       C  0.65198038  0.78127506  0.15279123    -0.10900
C2331       C  0.61801436  0.80987821  0.11569655     0.05500
H2332       H  0.65582718  0.86277011  0.12656672     0.07500
H2333       H  0.68139294  0.86602130  0.15029413     0.10900
H2334       H  0.65078229  0.75845704  0.16008688     0.11200
H2335       H  0.62355562  0.75562689  0.13626665     0.07500
C2336       C  0.61531643  0.77968685  0.10653798    -0.11600
C2337       C  0.59851124  0.78178227  0.09322791    -0.10900
C2338       C  0.58427876  0.81413650  0.08882471    -0.01800
C2339       C  0.58640292  0.84383469  0.09817556    -0.12000
C2340       C  0.60274334  0.84166767  0.11140644    -0.10400
H2341       H  0.62679882  0.75478149  0.10947847     0.07500
H2342       H  0.59727037  0.75841304  0.08624724     0.11200
H2343       H  0.57532852  0.86901626  0.09527792     0.10900
H2344       H  0.60332104  0.86515797  0.11832926     0.07500
C2345       C  0.67630924  0.89707365  0.00988330    -0.11600
C2346       C  0.67993674  0.93274274  0.01447135     0.05500
C2347       C  0.66461860  0.94360658  0.02749346    -0.10400
C2348       C  0.64401144  0.92027648  0.03497200    -0.12000
C2349       C  0.63812116  0.88583628  0.02949237    -0.01800
C2350       C  0.65547166  0.87401229  0.01722854    -0.52500
C2351       C  0.69765508  0.95888238  0.00511165     0.05500
H2352       H  0.66678624  0.97081975  0.03136085     0.07500
H2353       H  0.63053465  0.93028817  0.04425920     0.10900
H2354       H  0.65139082  0.84758718  0.01277553     0.11200
H2355       H  0.68853641  0.88735825  0.00019310     0.07500
C2356       C  0.71602780  0.98640733  0.01131867    -0.11600
C2357       C  0.73276032  0.01050623  0.00238085    -0.10900
C2358       C  0.73166687  0.00750694  0.98702561    -0.01800
C2359       C  0.71273084  0.98058741  0.98081944    -0.12000
C2360       C  0.69579779  0.95675350  0.98972951    -0.10400
H2361       H  0.71816267  0.98880204  0.02310084     0.07500
H2362       H  0.74742606  0.03071366  0.00750451     0.11200
H2363       H  0.71128961  0.97763975  0.96902810     0.10900
H2364       H  0.68117310  0.93664934  0.98452972     0.07500
C2365       C  0.41366946  0.65523853  0.99239575    -0.11600
C2366       C  0.41520864  0.69191888  0.98902856     0.05500
C2367       C  0.39840103  0.70460990  0.97678972    -0.10400
C2368       C  0.37924712  0.68156284  0.96856718    -0.12000
C2369       C  0.37646392  0.64519239  0.97235565    -0.01800
C2370       C  0.39457270  0.63212384  0.98413666    -0.10900
C2371       C  0.43396515  0.71689956  0.99833373     0.05500
H2372       H  0.39898312  0.73273216  0.97392660     0.07500
H2373       H  0.36538835  0.69266093  0.95967383     0.10900
H2374       H  0.39282404  0.60434502  0.98742777     0.11200
H2375       H  0.42685582  0.64451953  0.00157362     0.07500
C2376       C  0.43336198  0.71402645  0.01371704    -0.11600
C2377       C  0.45218014  0.73653403  0.02240827    -0.10900
C2378       C  0.47223472  0.76209484  0.01587286    -0.01800
C2379       C  0.47195343  0.76578183  0.00053710    -0.12000
C2380       C  0.45294173  0.74360409  0.99188271    -0.10400
H2381       H  0.41854418  0.69410583  0.01902415     0.07500
H2382       H  0.45209552  0.73287794  0.03417664     0.11200
H2383       H  0.48720384  0.78521414  0.99517216     0.10900
H2384       H  0.45401543  0.74648860  0.98008990     0.07500
C2385       C  0.41382052  0.90632615  0.06224636    -0.11600
C2386       C  0.39225582  0.88171900  0.06843433     0.05500
C2387       C  0.40395251  0.84882114  0.07357896    -0.10400
C2388       C  0.43624550  0.84014664  0.07202555    -0.12000
C2389       C  0.45752782  0.86421412  0.06530641    -0.01800
C2390       C  0.44608276  0.89770479  0.06072464    -0.10900
C2391       C  0.35750386  0.88961975  0.06857789     0.05500
H2392       H  0.38800212  0.82950640  0.07855549     0.07500
H2393       H  0.44432734  0.81411025  0.07565597     0.10900
H2394       H  0.46176132  0.91667308  0.05533916     0.11200
H2395       H  0.40551776  0.93166624  0.05795945     0.07500
C2396       C  0.34650502  0.92433209  0.07158274    -0.11600
C2397       C  0.31430459  0.93292818  0.06994163    -0.10900
C2398       C  0.29230078  0.90702235  0.06522255    -0.01800
C2399       C  0.30297089  0.87183718  0.06293205    -0.12000
C2400       C  0.33524331  0.86321103  0.06461522    -0.10400
H2401       H  0.36296719  0.94511591  0.07487679     0.07500
H2402       H  0.30690229  0.96029402  0.07182758     0.11200
H2403       H  0.28665465  0.85131520  0.05923534     0.10900
H2404       H  0.34299782  0.83628497  0.06209384     0.07500
C2405       C  0.87668941  0.33769726  0.29631375    -0.11600
C2406       C  0.87189214  0.35861124  0.28371796     0.05500
C2407       C  0.85831361  0.34261397  0.27127422    -0.10400
C2408       C  0.84743665  0.30722946  0.27186404    -0.12000
C2409       C  0.84987123  0.28751134  0.28491848    -0.01800
C2410       C  0.86565089  0.30262485  0.29693567    -0.10900
C2411       C  0.87970722  0.39730180  0.28401258     0.05500
H2412       H  0.85444045  0.35800855  0.26139372     0.07500
H2413       H  0.83514136  0.29622152  0.26247425     0.10900
H2414       H  0.86811664  0.28786779  0.30708454     0.11200
H2415       H  0.88807766  0.34886163  0.30590758     0.07500
C2416       C  0.87365339  0.41737701  0.29674769    -0.11600
C2417       C  0.88376447  0.45277982  0.29778476    -0.10900
C2418       C  0.89971057  0.46908406  0.28602553    -0.01800
C2419       C  0.90386510  0.44992480  0.27291129    -0.12000
C2420       C  0.89403144  0.41425228  0.27192421    -0.10400
H2421       H  0.86173570  0.40541377  0.30608780     0.07500
H2422       H  0.88012089  0.46701959  0.30798087     0.11200
H2423       H  0.91646886  0.46178223  0.26373364     0.10900
H2424       H  0.89900495  0.39950010  0.26197639     0.07500
C2425       C  0.76320845  0.04701137  0.24809485    -0.11600
C2426       C  0.74683798  0.02002787  0.25577857     0.05500
C2427       C  0.73687058  0.02657951  0.27022120    -0.10400
C2428       C  0.74336139  0.05949086  0.27685324    -0.12000
C2429       C  0.75994974  0.08636443  0.26915111    -0.01800
C2430       C  0.76956375  0.07982321  0.25466913    -0.10900
C2431       C  0.73905635  0.98600538  0.24831514     0.05500
H2432       H  0.72386824  0.00642572  0.27631109     0.07500
H2433       H  0.73592172  0.06364229  0.28810709     0.10900
H2434       H  0.78290452  0.09963243  0.24854380     0.11200
H2435       H  0.77156725  0.04253782  0.23699944     0.07500
C2436       C  0.72836777  0.98718692  0.23382451    -0.11600
C2437       C  0.72145132  0.95592133  0.22635192    -0.10900
C2438       C  0.72467038  0.92231898  0.23315171    -0.01800
C2439       C  0.73518427  0.92082921  0.24773460    -0.12000
C2440       C  0.74231764  0.95256335  0.25528726    -0.10400
H2441       H  0.72495447  0.01246932  0.22826406     0.07500
H2442       H  0.71310003  0.95834686  0.21517252     0.11200
H2443       H  0.73769290  0.89538394  0.25326506     0.10900
H2444       H  0.75068368  0.95098708  0.26648705     0.07500
C2445       C  0.66387119  0.32199651  0.22514145    -0.11600
C2446       C  0.67349821  0.33136960  0.23942539     0.05500
C2447       C  0.66228848  0.36394914  0.24524118    -0.10400
C2448       C  0.64143056  0.38573953  0.23729135    -0.12000
C2449       C  0.63055796  0.37543913  0.22337030    -0.01800
C2450       C  0.64246538  0.34356987  0.21727694    -0.10900
C2451       C  0.69410991  0.30700163  0.24846433     0.05500
H2452       H  0.66841881  0.37206463  0.25623538     0.07500
H2453       H  0.63235589  0.40977768  0.24246822     0.10900
H2454       H  0.63450870  0.33477312  0.20661047     0.11200
H2455       H  0.67245739  0.29763965  0.22006887     0.07500
C2456       C  0.69240215  0.26947331  0.24697754    -0.11600
C2457       C  0.71120386  0.24686045  0.25570240    -0.10900
C2458       C  0.73162752  0.26109065  0.26637407    -0.01800
C2459       C  0.73328810  0.29840368  0.26794652    -0.12000
C2460       C  0.71511275  0.32100740  0.25902728    -0.10400
H2461       H  0.67620890  0.25741917  0.23923438     0.07500
H2462       H  0.70949490  0.21816133  0.25422037     0.11200
H2463       H  0.74933800  0.31020276  0.27584153     0.10900
H2464       H  0.71794094  0.34960863  0.26034034     0.07500
C2465       C  0.66806454  0.11916847  0.32757014    -0.11600
C2466       C  0.64226487  0.13968808  0.32247468     0.05500
C2467       C  0.64838660  0.17364733  0.31647056    -0.10400
C2468       C  0.67961998  0.18587696  0.31478826    -0.12000
C2469       C  0.70550621  0.16434675  0.31897330    -0.01800
C2470       C  0.69940085  0.13134628  0.32580878    -0.10900
C2471       C  0.60947965  0.12463285  0.32200017     0.05500
H2472       H  0.62915883  0.18997523  0.31225690     0.07500
H2473       H  0.68349138  0.21137200  0.30942260     0.10900
H2474       H  0.71885603  0.11424336  0.32922046     0.11200
H2475       H  0.66407166  0.09316740  0.33247453     0.07500
C2476       C  0.60453303  0.08893102  0.31771094    -0.11600
C2477       C  0.57373122  0.07619105  0.31505629    -0.10900
C2478       C  0.54724100  0.09887534  0.31665165    -0.01800
C2479       C  0.55206284  0.13397350  0.32170229    -0.12000
C2480       C  0.58281388  0.14668579  0.32435314    -0.10400
H2481       H  0.62455519  0.07134216  0.31563728     0.07500
H2482       H  0.57079229  0.04901379  0.31119707     0.11200
H2483       H  0.53215116  0.15211644  0.32310830     0.10900
H2484       H  0.58577958  0.17414138  0.32786518     0.07500
C2485       C  0.89845311  0.05742557  0.27031443    -0.11600
C2486       C  0.91463122  0.07032414  0.25785768     0.05500
C2487       C  0.91189194  0.10674912  0.25429425    -0.10400
C2488       C  0.89264735  0.12952368  0.26270034    -0.12000
C2489       C  0.87545157  0.11636027  0.27483635    -0.01800
C2490       C  0.87901298  0.08013697  0.27866836    -0.10900
C2491       C  0.93439126  0.04590164  0.24866727     0.05500
H2492       H  0.92451673  0.11761907  0.24490448     0.07500
H2493       H  0.89031756  0.15714905  0.25935331     0.10900
H2494       H  0.86577559  0.06893617  0.28780976     0.11200
H2495       H  0.89997663  0.02948904  0.27330620     0.07500
C2496       C  0.95504354  0.02123276  0.25529130    -0.11600
C2497       C  0.97477355  0.99938250  0.24677657    -0.10900
C2498       C  0.97419304  0.00135324  0.23137785    -0.01800
C2499       C  0.95276697  0.02514217  0.22469141    -0.12000
C2500       C  0.93318590  0.04736643  0.23325298    -0.10400
H2501       H  0.95668862  0.01959931  0.26712696     0.07500
H2502       H  0.99102653  0.98142461  0.25228680     0.11200
H2503       H  0.95191535  0.02744999  0.21285523     0.10900
H2504       H  0.91721920  0.06580662  0.22784345     0.07500
C2505       C  0.89272828  0.34609921  0.47522846    -0.11600
C2506       C  0.89898587  0.36996655  0.46362539     0.05500
C2507       C  0.91570215  0.35763495  0.45129444    -0.10400
C2508       C  0.92438299  0.32202798  0.45015606    -0.12000
C2509       C  0.91761262  0.29790127  0.46153405    -0.01800
C2510       C  0.90232593  0.31028948  0.47425097    -0.10900
C2511       C  0.88604291  0.40676395  0.46360286     0.05500
H2512       H  0.92193770  0.37549969  0.44239433     0.07500
H2513       H  0.93719268  0.31362781  0.44041813     0.10900
H2514       H  0.89751354  0.29229659  0.48329127     0.11200
H2515       H  0.87973743  0.35480907  0.48485548     0.07500
C2516       C  0.87437166  0.42111232  0.45045498    -0.11600
C2517       C  0.86025336  0.45457722  0.45019206    -0.10900
C2518       C  0.85666069  0.47436809  0.46313486    -0.01800
C2519       C  0.86918372  0.46081290  0.47627033    -0.12000
C2520       C  0.88391839  0.42721475  0.47649213    -0.10400
H2521       H  0.87487492  0.40589440  0.44037409     0.07500
H2522       H  0.85077654  0.46413723  0.43988302     0.11200
H2523       H  0.86671593  0.47560464  0.48640542     0.10900
H2524       H  0.89313711  0.41703436  0.48674182     0.07500
C2525       C  0.00885057  0.98568083  0.51671050    -0.11600
C2526       C  0.00990922  0.98857588  0.50140687     0.05500
C2527       C  0.01734932  0.95788948  0.49305910    -0.10400
C2528       C  0.02470552  0.92539621  0.49998863    -0.12000
C2529       C  0.02461416  0.92332508  0.51532024    -0.01800
C2530       C  0.01570620  0.95348490  0.52353002    -0.10900
C2531       C  0.00384087  0.02384974  0.49445454     0.05500
H2532       H  0.01785291  0.95908372  0.48120852     0.07500
H2533       H  0.03168209  0.90252968  0.49345163     0.10900
H2534       H  0.01525073  0.95262502  0.53540074     0.11200
H2535       H  0.00386829  0.00863625  0.52354918     0.07500
C2536       C  0.98171309  0.04776522  0.50071963    -0.11600
C2537       C  0.97623726  0.08117984  0.49445192    -0.10900
C2538       C  0.99220767  0.09117226  0.48157955    -0.01800
C2539       C  0.01469224  0.06768055  0.47539088    -0.12000
C2540       C  0.02063004  0.03443831  0.48182327    -0.10400
H2541       H  0.96784466  0.04035596  0.51027913     0.07500
H2542       H  0.95831795  0.09842867  0.49927788     0.11200
H2543       H  0.02725534  0.07473805  0.46540003     0.10900
H2544       H  0.03832412  0.01709612  0.47689975     0.07500
C2545       C  0.86530123  0.15707858  0.35997608    -0.11600
C2546       C  0.86981515  0.18969236  0.36737498     0.05500
C2547       C  0.85862750  0.22130069  0.36074812    -0.10400
C2548       C  0.84299017  0.22019708  0.34718174    -0.12000
C2549       C  0.83867868  0.18755014  0.33981696    -0.01800
C2550       C  0.85012548  0.15606015  0.34635029    -0.10900
C2551       C  0.88609056  0.19043087  0.38192165     0.05500
H2552       H  0.86145068  0.24682993  0.36617695     0.07500
H2553       H  0.83441103  0.24490325  0.34240670     0.10900
H2554       H  0.84693359  0.13046441  0.34100539     0.11200
H2555       H  0.87389233  0.13226765  0.36464056     0.07500
C2556       C  0.88023270  0.16339827  0.39231082    -0.11600
C2557       C  0.89631859  0.16301654  0.40571084    -0.10900
C2558       C  0.91880729  0.18962406  0.40913717    -0.01800
C2559       C  0.92431234  0.21707695  0.39888904    -0.12000
C2560       C  0.90808549  0.21752023  0.38545674    -0.10400
H2561       H  0.86306868  0.14248651  0.39010055     0.07500
H2562       H  0.89129063  0.14154849  0.41335574     0.11200
H2563       H  0.94140990  0.23800571  0.40117761     0.10900
H2564       H  0.91335989  0.23861153  0.37768062     0.07500
C2565       C  0.09265715  0.32271234  0.52478888    -0.11600
C2566       C  0.08343087  0.33199448  0.51040939     0.05500
C2567       C  0.09544657  0.36414539  0.50450879    -0.10400
C2568       C  0.11628930  0.38575081  0.51250599    -0.12000
C2569       C  0.12654414  0.37567871  0.52655738    -0.01800
C2570       C  0.11425396  0.34402414  0.53267971    -0.10900
C2571       C  0.06251621  0.30799200  0.50132073     0.05500
H2572       H  0.08991215  0.37215745  0.49343687     0.07500
H2573       H  0.12578002  0.40956044  0.50728483     0.10900
H2574       H  0.12178088  0.33542162  0.54344126     0.11200
H2575       H  0.08354233  0.29869673  0.52995371     0.07500
C2576       C  0.06261401  0.27051607  0.50325250    -0.11600
C2577       C  0.04395831  0.24822759  0.49433941    -0.10900
C2578       C  0.02538482  0.26264707  0.48300317    -0.01800
C2579       C  0.02508954  0.29989335  0.48106023    -0.12000
C2580       C  0.04298912  0.32222976  0.49018926    -0.10400
H2581       H  0.07751379  0.25816625  0.51145613     0.07500
H2582       H  0.04443167  0.21958194  0.49617167     0.11200
H2583       H  0.01030203  0.31188296  0.47269152     0.10900
H2584       H  0.04114437  0.35082908  0.48853487     0.07500
C2585       C  0.10879385  0.17182683  0.43133088    -0.11600
C2586       C  0.11449681  0.13656989  0.42671310     0.05500
C2587       C  0.08837038  0.11448930  0.42338826    -0.10400
C2588       C  0.05718320  0.12686905  0.42539464    -0.12000
C2589       C  0.05162790  0.16154909  0.43074280    -0.01800
C2590       C  0.07773703  0.18419236  0.43329134    -0.10900
C2591       C  0.14743023  0.12216334  0.42698331     0.05500
H2592       H  0.09206986  0.08730975  0.41966663     0.07500
H2593       H  0.03750778  0.10882194  0.42332959     0.10900
H2594       H  0.07427415  0.21100627  0.43748632     0.11200
H2595       H  0.12834550  0.18932503  0.43423444     0.07500
C2596       C  0.17340170  0.14372172  0.42283970    -0.11600
C2597       C  0.20460341  0.13270965  0.42565440    -0.10900
C2598       C  0.21043673  0.09982064  0.43259518    -0.01800
C2599       C  0.18459045  0.07719164  0.43580798    -0.12000
C2600       C  0.15339058  0.08828097  0.43305673    -0.10400
H2601       H  0.16953610  0.16971171  0.41790737     0.07500
H2602       H  0.22405974  0.15057191  0.42291164     0.11200
H2603       H  0.18833295  0.05163954  0.44113093     0.10900
H2604       H  0.13391432  0.07119925  0.43651360     0.07500
C2605       C  0.79917994  0.02858633  0.49263028    -0.11600
C2606       C  0.81319881  0.05986318  0.49820918     0.05500
C2607       C  0.80900455  0.06793559  0.51315402    -0.10400
C2608       C  0.79097367  0.04544953  0.52222768    -0.12000
C2609       C  0.77699299  0.01424786  0.51659428    -0.01800
C2610       C  0.78147969  0.00596970  0.50171708    -0.10900
C2611       C  0.83317959  0.08310618  0.48861653     0.05500
H2612       H  0.81996235  0.09139000  0.51789100     0.07500
H2613       H  0.78783091  0.05260833  0.53364660     0.10900
H2614       H  0.77062053  0.98244061  0.49697846     0.11200
H2615       H  0.80147319  0.02176503  0.48114254     0.07500
C2616       C  0.85325816  0.06774024  0.47798298    -0.11600
C2617       C  0.87429861  0.08889976  0.46988357    -0.10900
C2618       C  0.87614247  0.12594396  0.47231532    -0.01800
C2619       C  0.85493664  0.14169877  0.48237844    -0.12000
C2620       C  0.83357854  0.12049476  0.49040561    -0.10400
H2621       H  0.85394149  0.03908738  0.47640142     0.07500
H2622       H  0.89048108  0.07580305  0.46231496     0.11200
H2623       H  0.85576184  0.17015819  0.48449224     0.10900
H2624       H  0.81789917  0.13330586  0.49827051     0.07500
loop_ 
_geom_bond_atom_site_label_1 
_geom_bond_atom_site_label_2 
_geom_bond_distance 
_geom_bond_site_symmetry_2 
_ccdc_geom_bond_type 
O1           C16   1.263       .  A
O1           Al9   1.901       .  S
C2           O12   1.259       .  A
C2            O3   1.266   1_455  A
C2         C2589   1.475       .  S
O3           Al5   1.929       .  S
O4            C6   1.258       .  A
O4           Al5   1.878       .  S
Al5          O13   1.890       .  S
Al5          O15   1.919       .  S
Al5          O14   1.773       .  S
C6           O19   1.268       .  A
C6         C2538   1.472       .  S
O7           C17   1.262   1_655  A
O7           Al9   1.906       .  S
O8           C21   1.258       .  A
O8          Al18   1.863       .  S
Al9          O22   1.941       .  S
Al9          O19   1.933       .  S
Al9          O14   1.781       .  S
O10          C17   1.268   1_655  A
O10         Al18   1.945       .  S
O11          C20   1.269       .  A
O11         Al18   1.949       .  S
O12         Al18   1.876   1_455  S
O13          C20   1.260       .  A
O14         Al18   1.769       .  S
O15          C16   1.265       .  A
C16        C2618   1.481       .  S
C17        C2578   1.486       .  S
C20        C2558   1.490       .  S
C21          O22   1.268       .  A
C21        C2509   1.468       .  S
O23          C38   1.262       .  A
O23         Al31   1.894       .  S
C24          O34   1.262       .  A
C24          O25   1.268       .  A
C24        C2469   1.479       .  S
O25         Al27   1.933       .  S
O26          C28   1.258       .  A
O26         Al27   1.882       .  S
Al27         O35   1.898       .  S
Al27         O37   1.935       .  S
Al27         O36   1.780       .  S
C28          O41   1.266       .  A
C28        C2429   1.476       .  S
O29          C39   1.261       .  A
O29         Al31   1.909       .  S
O30          C43   1.261       .  A
O30         Al40   1.877       .  S
Al31         O44   1.943       .  S
Al31         O41   1.925       .  S
Al31         O36   1.779       .  S
O32          C39   1.266       .  A
O32         Al40   1.939       .  S
O33          C42   1.266       .  A
O33         Al40   1.935       .  S
O34         Al40   1.883       .  S
O35          C42   1.261       .  A
O36         Al40   1.775       .  S
O37          C38   1.268       .  A
C38        C2489   1.487       .  S
C39        C2458   1.486       .  S
C42        C2549   1.485       .  S
C43          O44   1.270       .  A
C43        C2409   1.473       .  S
O45          C60   1.263       .  A
O45         Al53   1.904       .  S
C46          O56   1.259       .  A
C46          O47   1.261       .  A
C46        C2389   1.480       .  S
O47         Al49   1.912       .  S
O48          C50   1.263       .  A
O48         Al49   1.915       .  S
Al49         O57   1.919       .  S
Al49         O59   1.877       .  S
Al49         O58   1.794       .  S
C50          O63   1.259       .  A
C50        C2378   1.482       .  S
O51          C61   1.262       .  A
O51         Al53   1.915       .  S
O52          C65   1.265       .  A
O52         Al62   1.914       .  S
Al53         O66   1.899       .  S
Al53         O63   1.896       .  S
Al53         O58   1.791       .  S
O54          C61   1.256       .  A
O54         Al62   1.874       .  S
O55          C64   1.260       .  A
O55         Al62   1.901       .  S
O56         Al62   1.891       .  S
O57          C64   1.261       .  A
O58         Al62   1.788       .  S
O59          C60   1.259       .  A
C60        C2289   1.470       .  S
C61        C2309   1.471       .  S
C64        C2338   1.487       .  S
C65          O66   1.261       .  A
C65        C2349   1.478       .  S
O67          C82   1.264       .  A
O67         Al75   1.921       .  S
C68          O78   1.261       .  A
C68          O69   1.259       .  A
C68        C2269   1.485       .  S
O69         Al71   1.900       .  S
O70          C72   1.263       .  A
O70         Al71   1.917       .  S
Al71         O79   1.916       .  S
Al71         O81   1.873       .  S
Al71         O80   1.797       .  S
C72          O85   1.258       .  A
C72        C2258   1.485       .  S
O73          C83   1.265       .  A
O73         Al75   1.926       .  S
O74          C87   1.268       .  A
O74         Al84   1.934       .  S
Al75         O88   1.880       .  S
Al75         O85   1.894       .  S
Al75         O80   1.796       .  S
O76          C83   1.256       .  A
O76         Al84   1.867       .  S
O77          C86   1.261       .  A
O77         Al84   1.904       .  S
O78         Al84   1.910       .  S
O79          C86   1.261       .  A
O80         Al84   1.794       .  S
O81          C82   1.257       .  A
C82        C2209   1.475       .  S
C83        C2438   1.479       .  S
C86        C2329   1.486       .  S
C87          O88   1.258       .  A
C87        C2229   1.485       .  S
O89         C104   1.262       .  A
O89         Al97   1.900       .  S
C90         O100   1.261       .  A
C90          O91   1.265       .  A
C90        C2178   1.480       .  S
O91         Al93   1.928       .  S
O92          C94   1.258       .  A
O92         Al93   1.876       .  S
Al93        O101   1.887       .  S
Al93        O103   1.926       .  S
Al93        O102   1.778       .  S
C94         O107   1.268       .  A
C94        C2109   1.464       .  S
O95         C105   1.261       .  A
O95         Al97   1.897       .  S
O96         C109   1.261       .  A
O96        Al106   1.881       .  S
Al97        O110   1.933       .  S
Al97        O107   1.928       .  S
Al97        O102   1.779       .  S
O98         C105   1.267       .  A
O98        Al106   1.938       .  S
O99         C108   1.269       .  A
O99        Al106   1.940       .  S
O100       Al106   1.891       .  S
O101        C108   1.261       .  A
O102       Al106   1.771       .  S
O103        C104   1.265       .  A
C104       C2189   1.485       .  S
C105       C2149   1.490       .  S
C108       C2129   1.482       .  S
C109        O110   1.268       .  A
C109       C2089   1.470       .  S
O111        C126   1.263       .  A
O111       Al119   1.894       .  S
C112        O122   1.260       .  A
C112        O113   1.266       .  A
C112       C2058   1.475       .  S
O113       Al115   1.926       .  S
O114        C116   1.258       .  A
O114       Al115   1.881       .  S
Al115       O123   1.880       .  S
Al115       O125   1.927       .  S
Al115       O124   1.774       .  S
C116        O129   1.267       .  A
C116       C2318   1.472       .  S
O117        C127   1.260       .  A
O117       Al119   1.898       .  S
O118        C131   1.259       .  A
O118       Al128   1.872       .  S
Al119       O132   1.947       .  S
Al119       O129   1.931       .  S
Al119       O124   1.776       .  S
O120        C127   1.268       .  A
O120       Al128   1.942       .  S
O121        C130   1.268       .  A
O121       Al128   1.942       .  S
O122       Al128   1.880       .  S
O123        C130   1.259       .  A
O124       Al128   1.772       .  S
O125        C126   1.266       .  A
C126       C2078   1.480       .  S
C127       C2029   1.478       .  S
C130       C2138   1.481       .  S
C131        O132   1.269       .  A
C131       C2018   1.477       .  S
O133        C148   1.265       .  A
O133       Al141   1.912       .  S
C134        O144   1.260       .  A
C134        O135   1.258       .  A
C134       C1998   1.486       .  S
O135       Al137   1.899       .  S
O136        C138   1.261       .  A
O136       Al137   1.913       .  S
Al137       O145   1.908       .  S
Al137       O147   1.885       .  S
Al137       O146   1.800       .  S
C138        O151   1.256       .  A
C138       C1969   1.476       .  S
O139        C149   1.262       .  A
O139       Al141   1.910       .  S
O140        C153   1.266       .  A
O140       Al150   1.931       .  S
Al141       O154   1.883       .  S
Al141       O151   1.883       .  S
Al141       O146   1.794       .  S
O142        C149   1.256       .  A
O142       Al150   1.867       .  S
O143        C152   1.260       .  A
O143       Al150   1.895       .  S
O144       Al150   1.907       .  S
O145        C152   1.261       .  A
O146       Al150   1.795       .  S
O147        C148   1.260       .  A
C148       C1909   1.475       .  S
C149       C2118   1.463       .  S
C152       C1938   1.483       .  S
C153        O154   1.257       .  A
C153       C1958   1.490       .  S
O155        C170   1.267       .  A
O155       Al163   1.920       .  S
C156        O166   1.259   1_655  A
C156        O157   1.257   1_655  A
C156       C1898   1.482       .  S
O157       Al159   1.900       .  S
O158        C160   1.260   1_655  A
O158       Al159   1.913   1_655  S
Al159       O167   1.905       .  S
Al159       O169   1.877       .  S
Al159       O168   1.800       .  S
C160        O173   1.256       .  A
C160       C1869   1.479   1_455  S
O161        C171   1.266       .  A
O161       Al163   1.923       .  S
O162        C175   1.264       .  A
O162       Al172   1.927       .  S
Al163       O176   1.885       .  S
Al163       O173   1.885       .  S
Al163       O168   1.796       .  S
O164        C171   1.257       .  A
O164       Al172   1.867       .  S
O165        C174   1.259       .  A
O165       Al172   1.894       .  S
O166       Al172   1.902       .  S
O167        C174   1.260       .  A
O168       Al172   1.792       .  S
O169        C170   1.260       .  A
C170       C1838   1.477       .  S
C171       C2529   1.471       .  S
C174       C1929   1.483       .  S
C175        O176   1.257       .  A
C175       C1849   1.488       .  S
O177        C192   1.266   1_565  A
O177       Al185   1.923       .  S
C178        O188   1.260       .  A
C178        O179   1.259       .  A
C178       C2398   1.481       .  S
O179       Al181   1.900       .  S
O180        C182   1.261       .  A
O180       Al181   1.914       .  S
Al181       O189   1.913       .  S
Al181       O191   1.873   1_565  S
Al181       O190   1.794       .  S
C182        O195   1.256       .  A
C182       C2069   1.481   1_565  S
O183        C193   1.265       .  A
O183       Al185   1.926       .  S
O184        C197   1.267       .  A
O184       Al194   1.929       .  S
Al185       O198   1.882       .  S
Al185       O195   1.885       .  S
Al185       O190   1.795       .  S
O186        C193   1.255       .  A
O186       Al194   1.867       .  S
O187        C196   1.258       .  A
O187       Al194   1.897       .  S
O188       Al194   1.901       .  S
O189        C196   1.259       .  A
O190       Al194   1.796       .  S
O191        C192   1.258       .  A
C192       C1758   1.478       .  S
C193       C1778   1.474       .  S
C196       C1789   1.476       .  S
C197        O198   1.259       .  A
C197       C1818   1.484       .  S
O199        C214   1.264   1_565  A
O199       Al207   1.913       .  S
C200        O210   1.260   1_655  A
C200        O201   1.258       .  A
C200       C2278   1.486       .  S
O201       Al203   1.895   1_655  S
O202        C204   1.260       .  A
O202       Al203   1.916   1_655  S
Al203       O211   1.906       .  S
Al203       O213   1.874   1_565  S
Al203       O212   1.800       .  S
C204        O217   1.255   1_655  A
C204       C2498   1.485   1_565  S
O205        C215   1.264       .  A
O205       Al207   1.915       .  S
O206        C219   1.265       .  A
O206       Al216   1.932       .  S
Al207       O220   1.884       .  S
Al207       O217   1.887       .  S
Al207       O212   1.800       .  S
O208        C215   1.257       .  A
O208       Al216   1.866       .  S
O209        C218   1.259       .  A
O209       Al216   1.899       .  S
O210       Al216   1.909       .  S
O211        C218   1.259       .  A
O212       Al216   1.800       .  S
O213        C214   1.259       .  A
C214       C1689   1.471       .  S
C215       C1709   1.472       .  S
C218       C1798   1.487       .  S
C219        O220   1.257       .  A
C219       C1729   1.490       .  S
O221        C236   1.265       .  A
O221       Al229   1.902       .  S
C222        O232   1.261       .  A
C222        O223   1.267   1_455  A
C222       C1669   1.482       .  S
O223       Al225   1.931       .  S
O224        C226   1.256       .  A
O224       Al225   1.881       .  S
Al225       O233   1.892       .  S
Al225       O235   1.932       .  S
Al225       O234   1.779       .  S
C226        O239   1.264       .  A
C226       C1718   1.469       .  S
O227        C237   1.262       .  A
O227       Al229   1.910       .  S
O228        C241   1.262       .  A
O228       Al238   1.888       .  S
Al229       O242   1.933       .  S
Al229       O239   1.917       .  S
Al229       O234   1.780       .  S
O230        C237   1.267       .  A
O230       Al238   1.942       .  S
O231        C240   1.267       .  A
O231       Al238   1.939       .  S
O232       Al238   1.887   1_455  S
O233        C240   1.260       .  A
O234       Al238   1.775       .  S
O235        C236   1.268       .  A
C236       C2249   1.488       .  S
C237       C1649   1.487   1_655  S
C240       C1629   1.486       .  S
C241        O242   1.267       .  A
C241       C2418   1.473       .  S
O243        C258   1.259       .  A
O243       Al251   1.889       .  S
C244        O254   1.263       .  A
C244        O245   1.267       .  A
C244       C1609   1.477       .  S
O245       Al247   1.927       .  S
O246        C248   1.260       .  A
O246       Al247   1.879       .  S
Al247       O255   1.898       .  S
Al247       O257   1.923       .  S
Al247       O256   1.773       .  S
C248        O261   1.266       .  A
C248       C1569   1.472       .  S
O249        C259   1.258       .  A
O249       Al251   1.896       .  S
O250        C263   1.260       .  A
O250       Al260   1.865       .  S
Al251       O264   1.935       .  S
Al251       O261   1.925       .  S
Al251       O256   1.779       .  S
O252        C259   1.265       .  A
O252       Al260   1.937       .  S
O253        C262   1.268       .  A
O253       Al260   1.938       .  S
O254       Al260   1.891       .  S
O255        C262   1.262       .  A
O256       Al260   1.772       .  S
O257        C258   1.265       .  A
C258       C1878   1.479       .  S
C259       C1589   1.477       .  S
C262       C1638   1.487       .  S
C263        O264   1.268       .  A
C263       C2518   1.470       .  S
O265        C280   1.264   1_565  A
O265       Al273   1.919       .  S
C266        O276   1.261       .  A
C266        O267   1.261       .  A
C266       C1989   1.484       .  S
O267       Al269   1.910       .  S
O268        C270   1.263       .  A
O268       Al269   1.914       .  S
Al269       O277   1.911       .  S
Al269       O279   1.879   1_565  S
Al269       O278   1.791       .  S
C270        O283   1.259       .  A
C270       C2198   1.481       .  S
O271        C281   1.263       .  A
O271       Al273   1.919       .  S
O272        C285   1.270       .  A
O272       Al282   1.933       .  S
Al273       O286   1.882       .  S
Al273       O283   1.893       .  S
Al273       O278   1.786       .  S
O274        C281   1.256       .  A
O274       Al282   1.874       .  S
O275        C284   1.260       .  A
O275       Al282   1.909       .  S
O276       Al282   1.904       .  S
O277        C284   1.260       .  A
O278       Al282   1.793       .  S
O279        C280   1.258       .  A
C280       C1498   1.475       .  S
C281       C1509   1.474       .  S
C284       C1529   1.474       .  S
C285        O286   1.260       .  A
C285       C1558   1.484       .  S
O287        C302   1.268   1_565  A
O287       Al295   1.939       .  S
C288        O298   1.270       .  A
C288        O289   1.260       .  A
C288       C1889   1.482       .  S
O289       Al291   1.876       .  S
O290        C292   1.265   1_545  A
O290       Al291   1.933   1_545  S
Al291       O299   1.930       .  S
Al291       O301   1.876   1_565  S
Al291       O300   1.778       .  S
C292        O305   1.260       .  A
C292       C2609   1.480   1_565  S
O293        C303   1.265       .  A
O293       Al295   1.934       .  S
O294        C307   1.269       .  A
O294       Al304   1.949       .  S
Al295       O308   1.883       .  S
Al295       O305   1.887       .  S
Al295       O300   1.780       .  S
O296        C303   1.254       .  A
O296       Al304   1.865       .  S
O297        C306   1.259       .  A
O297       Al304   1.888       .  S
O298       Al304   1.944       .  S
O299        C306   1.264       .  A
O300       Al304   1.776       .  S
O301        C302   1.261       .  A
C302       C1449   1.471       .  S
C303       C1578   1.471       .  S
C306       C1538   1.481       .  S
C307        O308   1.260       .  A
C307       C1469   1.486       .  S
O309        C324   1.261       .  A
O309       Al317   1.894       .  S
C310        O320   1.262       .  A
C310        O311   1.267       .  A
C310       C1429   1.482       .  S
O311       Al313   1.930       .  S
O312        C314   1.260       .  A
O312       Al313   1.888       .  S
Al313       O321   1.894       .  S
Al313       O323   1.923       .  S
Al313       O322   1.776       .  S
C314        O327   1.266       .  A
C314       C1518   1.474       .  S
O315        C325   1.260       .  A
O315       Al317   1.900       .  S
O316        C329   1.262       .  A
O316       Al326   1.883       .  S
Al317       O330   1.934       .  S
Al317       O327   1.924       .  S
Al317       O322   1.778       .  S
O318        C325   1.265       .  A
O318       Al326   1.929       .  S
O319        C328   1.266       .  A
O319       Al326   1.935       .  S
O320       Al326   1.891       .  S
O321        C328   1.261       .  A
O322       Al326   1.775       .  S
O323        C324   1.265       .  A
C324       C1978   1.481       .  S
C325       C1409   1.477       .  S
C328       C1389   1.485       .  S
C329        O330   1.268       .  A
C329       C2098   1.473       .  S
O331        C346   1.262       .  A
O331       Al339   1.903       .  S
C332        O342   1.258       .  A
C332        O333   1.263       .  A
C332       C1369   1.478       .  S
O333       Al335   1.928       .  S
O334        C336   1.261       .  A
O334       Al335   1.881       .  S
Al335       O343   1.886       .  S
Al335       O345   1.921       .  S
Al335       O344   1.778       .  S
C336        O349   1.271       .  A
C336       C1769   1.473       .  S
O337        C347   1.259       .  A
O337       Al339   1.895       .  S
O338        C351   1.257       .  A
O338       Al348   1.860       .  S
Al339       O352   1.948       .  S
Al339       O349   1.940       .  S
Al339       O344   1.783       .  S
O340        C347   1.266       .  A
O340       Al348   1.932       .  S
O341        C350   1.270       .  A
O341       Al348   1.945       .  S
O342       Al348   1.885       .  S
O343        C350   1.263       .  A
O344       Al348   1.774       .  S
O345        C346   1.263       .  A
C346       C2369   1.485       .  S
C347       C1349   1.488       .  S
C350       C1398   1.484       .  S
C351        O352   1.269       .  A
C351       C2009   1.475       .  S
O353        C368   1.261       .  A
O353       Al361   1.898       .  S
C354        O364   1.260       .  A
C354        O355   1.262       .  A
C354       C1338   1.481       .  S
O355       Al357   1.913       .  S
O356        C358   1.262       .  A
O356       Al357   1.914       .  S
Al357       O365   1.921       .  S
Al357       O367   1.886       .  S
Al357       O366   1.793       .  S
C358        O371   1.258       .  A
C358       C1309   1.483       .  S
O359        C369   1.261       .  A
O359       Al361   1.906       .  S
O360        C373   1.268       .  A
O360       Al370   1.929       .  S
Al361       O374   1.885       .  S
Al361       O371   1.895       .  S
Al361       O366   1.788       .  S
O362        C369   1.256       .  A
O362       Al370   1.870       .  S
O363        C372   1.258       .  A
O363       Al370   1.896       .  S
O364       Al370   1.890       .  S
O365        C372   1.261       .  A
O366       Al370   1.790       .  S
O367        C368   1.261       .  A
C368       C2298   1.462       .  S
C369       C1278   1.461       .  S
C372       C1289   1.478       .  S
C373        O374   1.260       .  A
C373       C2038   1.483       .  S
O375        C390   1.269       .  A
O375       Al383   1.940       .  S
C376        O386   1.267       .  A
C376        O377   1.261       .  A
C376       C1249   1.474       .  S
O377       Al379   1.884       .  S
O378        C380   1.265       .  A
O378       Al379   1.934       .  S
Al379       O387   1.928       .  S
Al379       O389   1.871       .  S
Al379       O388   1.781       .  S
C380        O393   1.259       .  A
C380       C1238   1.487       .  S
O381        C391   1.267       .  A
O381       Al383   1.931       .  S
O382        C395   1.266       .  A
O382       Al392   1.936       .  S
Al383       O396   1.895       .  S
Al383       O393   1.894       .  S
Al383       O388   1.784       .  S
O384        C391   1.257       .  A
O384       Al392   1.870       .  S
O385        C394   1.262       .  A
O385       Al392   1.896       .  S
O386       Al392   1.931       .  S
O387        C394   1.264       .  A
O388       Al392   1.780       .  S
O389        C390   1.259       .  A
C390       C2218   1.469       .  S
C391       C1209   1.475       .  S
C394       C1298   1.481       .  S
C395        O396   1.261       .  A
C395       C2449   1.489       .  S
O397        C412   1.261       .  A
O397       Al405   1.892       .  S
C398        O408   1.261       .  A
C398        O399   1.266       .  A
C398       C2598   1.477       .  S
O399       Al401   1.927       .  S
O400        C402   1.260       .  A
O400       Al401   1.888       .  S
Al401       O409   1.893       .  S
Al401       O411   1.930       .  S
Al401       O410   1.778       .  S
C402        O415   1.265       .  A
C402       C1149   1.468       .  S
O403        C413   1.260       .  A
O403       Al405   1.903       .  S
O404        C417   1.259       .  A
O404       Al414   1.866       .  S
Al405       O418   1.930       .  S
Al405       O415   1.915       .  S
Al405       O410   1.779       .  S
O406        C413   1.267       .  A
O406       Al414   1.939       .  S
O407        C416   1.267       .  A
O407       Al414   1.936       .  S
O408       Al414   1.885       .  S
O409        C416   1.261       .  A
O410       Al414   1.773       .  S
O411        C412   1.266       .  A
C412       C1198   1.483       .  S
C413       C1858   1.483       .  S
C416       C1169   1.483       .  S
C417        O418   1.266       .  A
C417       C1138   1.470   1_545  S
O419        C434   1.263       .  A
O419       Al427   1.903       .  S
C420        O430   1.263       .  A
C420        O421   1.265       .  A
C420       C2478   1.480       .  S
O421       Al423   1.920       .  S
O422        C424   1.260       .  A
O422       Al423   1.886       .  S
Al423       O431   1.888       .  S
Al423       O433   1.920       .  S
Al423       O432   1.774       .  S
C424        O437   1.265       .  A
C424       C1218   1.471       .  S
O425        C435   1.259       .  A
O425       Al427   1.899       .  S
O426        C439   1.261       .  A
O426       Al436   1.884       .  S
Al427       O440   1.928       .  S
Al427       O437   1.921       .  S
Al427       O432   1.778       .  S
O428        C435   1.267       .  A
O428       Al436   1.944       .  S
O429        C438   1.269       .  A
O429       Al436   1.943       .  S
O430       Al436   1.900       .  S
O431        C438   1.261       .  A
O432       Al436   1.777       .  S
O433        C434   1.264       .  A
C434       C1109   1.484       .  S
C435       C2238   1.478   1_545  S
C438       C1178   1.486       .  S
C439        O440   1.267       .  A
C439       C1089   1.470   1_545  S
O441        C456   1.264       .  A
O441       Al449   1.912       .  S
C442        O452   1.258   1_655  A
C442        O443   1.261       .  A
C442       C1069   1.483       .  S
O443       Al445   1.917   1_655  S
O444        C446   1.264       .  A
O444       Al445   1.916   1_655  S
Al445       O453   1.918       .  S
Al445       O455   1.889       .  S
Al445       O454   1.794       .  S
C446        O459   1.261   1_655  A
C446       C1049   1.485       .  S
O447        C457   1.262       .  A
O447       Al449   1.914       .  S
O448        C461   1.265       .  A
O448       Al458   1.917       .  S
Al449       O462   1.903       .  S
Al449       O459   1.901       .  S
Al449       O454   1.792       .  S
O450        C457   1.257       .  A
O450       Al458   1.874       .  S
O451        C460   1.261       .  A
O451       Al458   1.908       .  S
O452       Al458   1.891       .  S
O453        C460   1.262       .  A
O454       Al458   1.790       .  S
O455        C456   1.260       .  A
C456       C1918   1.474       .  S
C457       C1018   1.470       .  S
C460       C1038   1.482       .  S
C461        O462   1.261       .  A
C461       C2158   1.482       .  S
O463        C478   1.267       .  A
O463       Al471   1.935       .  S
C464        O474   1.268       .  A
C464        O465   1.259       .  A
C464        C998   1.478       .  S
O465       Al467   1.875       .  S
O466        C468   1.267       .  A
O466       Al467   1.943       .  S
Al467       O475   1.935       .  S
Al467       O477   1.870       .  S
Al467       O476   1.779       .  S
C468        O481   1.261       .  A
C468        C978   1.489       .  S
O469        C479   1.265       .  A
O469       Al471   1.930       .  S
O470        C483   1.269       .  A
O470       Al480   1.947       .  S
Al471       O484   1.892       .  S
Al471       O481   1.894       .  S
Al471       O476   1.784       .  S
O472        C479   1.256       .  A
O472       Al480   1.869       .  S
O473        C482   1.260       .  A
O473       Al480   1.893       .  S
O474       Al480   1.939       .  S
O475        C482   1.266       .  A
O476       Al480   1.779       .  S
O477        C478   1.258       .  A
C478       C1829   1.471       .  S
C479       C1158   1.473       .  S
C482       C1029   1.484       .  S
C483        O484   1.262       .  A
C483       C2569   1.490       .  S
O485        C500   1.263       .  A
O485       Al493   1.901       .  S
C486        O496   1.261       .  A
C486        O487   1.267   1_455  A
C486       C2169   1.480       .  S
O487       Al489   1.929       .  S
O488        C490   1.258       .  A
O488       Al489   1.884       .  S
Al489       O497   1.885       .  S
Al489       O499   1.931       .  S
Al489       O498   1.775       .  S
C490        O503   1.266       .  A
C490       C1009   1.471       .  S
O491        C501   1.262       .  A
O491       Al493   1.908       .  S
O492        C505   1.260       .  A
O492       Al502   1.880       .  S
Al493       O506   1.931       .  S
Al493       O503   1.924       .  S
Al493       O498   1.776       .  S
O494        C501   1.267       .  A
O494       Al502   1.938       .  S
O495        C504   1.267       .  A
O495       Al502   1.938       .  S
O496       Al502   1.888   1_455  S
O497        C504   1.260       .  A
O498       Al502   1.774       .  S
O499        C500   1.267       .  A
C500        C958   1.483       .  S
C501       C1949   1.483   1_645  S
C504        C938   1.482       .  S
C505        O506   1.267       .  A
C505        C909   1.470   1_545  S
O507        C522   1.262       .  A
O507       Al515   1.901       .  S
C508        O518   1.257       .  A
C508        O509   1.264       .  A
C508       C2049   1.475       .  S
O509       Al511   1.928       .  S
O510        C512   1.260       .  A
O510       Al511   1.881       .  S
Al511       O519   1.890       .  S
Al511       O521   1.922       .  S
Al511       O520   1.779       .  S
C512        O525   1.267       .  A
C512       C1269   1.463       .  S
O513        C523   1.260       .  A
O513       Al515   1.895       .  S
O514        C527   1.257       .  A
O514       Al524   1.862       .  S
Al515       O528   1.930       .  S
Al515       O525   1.922       .  S
Al515       O520   1.782       .  S
O516        C523   1.265       .  A
O516       Al524   1.925       .  S
O517        C526   1.268       .  A
O517       Al524   1.935       .  S
O518       Al524   1.877       .  S
O519        C526   1.263       .  A
O520       Al524   1.772       .  S
O521        C522   1.264       .  A
C522        C889   1.484       .  S
C523       C2358   1.483       .  S
C526        C929   1.482       .  S
C527        O528   1.265       .  A
C527        C869   1.461   1_545  S
O529        C544   1.262       .  A
O529       Al537   1.896       .  S
C530        O540   1.262       .  A
C530        O531   1.268   1_455  A
C530       C1378   1.478       .  S
O531       Al533   1.931       .  S
O532        C534   1.258       .  A
O532       Al533   1.880       .  S
Al533       O541   1.888       .  S
Al533       O543   1.928       .  S
Al533       O542   1.774       .  S
C534        O547   1.265       .  A
C534        C838   1.472       .  S
O535        C545   1.260       .  A
O535       Al537   1.902       .  S
O536        C549   1.261       .  A
O536       Al546   1.873       .  S
Al537       O550   1.931       .  S
Al537       O547   1.917       .  S
Al537       O542   1.778       .  S
O538        C545   1.267       .  A
O538       Al546   1.945       .  S
O539        C548   1.268       .  A
O539       Al546   1.944       .  S
O540       Al546   1.886   1_455  S
O541        C548   1.260       .  A
O542       Al546   1.775       .  S
O543        C544   1.266       .  A
C544       C1318   1.484       .  S
C545       C1809   1.481   1_655  S
C548        C849   1.486       .  S
C549        O550   1.268       .  A
C549        C878   1.468       .  S
O551        C566   1.262       .  A
O551       Al559   1.895       .  S
C552        O562   1.263       .  A
C552        O553   1.267       .  A
C552       C1438   1.482       .  S
O553       Al555   1.929       .  S
O554        C556   1.260       .  A
O554       Al555   1.887       .  S
Al555       O563   1.899       .  S
Al555       O565   1.929       .  S
Al555       O564   1.777       .  S
C556        O569   1.264       .  A
C556        C809   1.470       .  S
O557        C567   1.258       .  A
O557       Al559   1.897       .  S
O558        C571   1.261       .  A
O558       Al568   1.881       .  S
Al559       O572   1.930       .  S
Al559       O569   1.912       .  S
Al559       O564   1.777       .  S
O560        C567   1.266       .  A
O560       Al568   1.941       .  S
O561        C570   1.267       .  A
O561       Al568   1.935       .  S
O562       Al568   1.894       .  S
O563        C570   1.262       .  A
O564       Al568   1.775       .  S
O565        C566   1.266       .  A
C566       C1058   1.485       .  S
C567       C1549   1.480       .  S
C570        C858   1.486       .  S
C571        O572   1.267       .  A
C571        C918   1.466       .  S
O573        C588   1.262       .  A
O573       Al581   1.910       .  S
C574        O584   1.258   1_655  A
C574        O575   1.263       .  A
C574       C1329   1.482       .  S
O575       Al577   1.921   1_655  S
O576        C578   1.263       .  A
O576       Al577   1.908   1_655  S
Al577       O585   1.914       .  S
Al577       O587   1.896       .  S
Al577       O586   1.789       .  S
C578        O591   1.261   1_655  A
C578        C898   1.483       .  S
O579        C589   1.264       .  A
O579       Al581   1.920       .  S
O580        C593   1.266       .  A
O580       Al590   1.915       .  S
Al581       O594   1.901       .  S
Al581       O591   1.906       .  S
Al581       O586   1.786       .  S
O582        C589   1.256       .  A
O582       Al590   1.870       .  S
O583        C592   1.260       .  A
O583       Al590   1.906       .  S
O584       Al590   1.888       .  S
O585        C592   1.261       .  A
O586       Al590   1.788       .  S
O587        C588   1.260       .  A
C588       C1749   1.466       .  S
C589        C829   1.475       .  S
C592        C789   1.478       .  S
C593        O594   1.262       .  A
C593       C1358   1.476       .  S
O595        C610   1.267       .  A
O595       Al603   1.939       .  S
C596        O606   1.266       .  A
C596        O597   1.258       .  A
C596       C1258   1.476       .  S
O597       Al599   1.882       .  S
O598        C600   1.266       .  A
O598       Al599   1.930       .  S
Al599       O607   1.936       .  S
Al599       O609   1.867       .  S
Al599       O608   1.779       .  S
C600        O613   1.261       .  A
C600       C1118   1.485       .  S
O601        C611   1.266       .  A
O601       Al603   1.933       .  S
O602        C615   1.267       .  A
O602       Al612   1.941       .  S
Al603       O616   1.898       .  S
Al603       O613   1.896       .  S
Al603       O608   1.787       .  S
O604        C611   1.257       .  A
O604       Al612   1.866       .  S
O605        C614   1.261       .  A
O605       Al612   1.886       .  S
O606       Al612   1.932       .  S
O607        C614   1.266       .  A
O608       Al612   1.778       .  S
O609        C610   1.259       .  A
C610       C1698   1.473       .  S
C611        C769   1.471       .  S
C614        C798   1.481       .  S
C615        O616   1.263       .  A
C615       C1658   1.491       .  S
O617        C632   1.264       .  A
O617       Al625   1.906       .  S
C618        O628   1.261       .  A
C618        O619   1.265       .  A
C618       C1678   1.483       .  S
O619       Al621   1.928       .  S
O620        C622   1.260       .  A
O620       Al621   1.888       .  S
Al621       O629   1.891       .  S
Al621       O631   1.927       .  S
Al621       O630   1.777       .  S
C622        O635   1.265       .  A
C622        C778   1.466       .  S
O623        C633   1.260       .  A
O623       Al625   1.902       .  S
O624        C637   1.259       .  A
O624       Al634   1.880       .  S
Al625       O638   1.929       .  S
Al625       O635   1.914       .  S
Al625       O630   1.779       .  S
O626        C633   1.269       .  A
O626       Al634   1.945       .  S
O627        C636   1.269       .  A
O627       Al634   1.943       .  S
O628       Al634   1.892       .  S
O629        C636   1.261       .  A
O630       Al634   1.774       .  S
O631        C632   1.266       .  A
C632       C1229   1.487       .  S
C633       C1738   1.483       .  S
C636        C758   1.488       .  S
C637        O638   1.266       .  A
C637       C1098   1.468       .  S
O639        C654   1.265       .  A
O639       Al647   1.908       .  S
C640        O650   1.259       .  A
C640        O641   1.266       .  A
C640       C1618   1.477       .  S
O641       Al643   1.930       .  S
O642        C644   1.258       .  A
O642       Al643   1.879       .  S
Al643       O651   1.891       .  S
Al643       O653   1.928       .  S
Al643       O652   1.774       .  S
C644        O657   1.267       .  A
C644        C738   1.471       .  S
O645        C655   1.262       .  A
O645       Al647   1.907       .  S
O646        C659   1.258       .  A
O646       Al656   1.865       .  S
Al647       O660   1.942       .  S
Al647       O657   1.929       .  S
Al647       O652   1.783       .  S
O648        C655   1.267       .  A
O648       Al656   1.936       .  S
O649        C658   1.267       .  A
O649       Al656   1.941       .  S
O650       Al656   1.877       .  S
O651        C658   1.261       .  A
O652       Al656   1.772       .  S
O653        C654   1.267       .  A
C654        C969   1.488       .  S
C655       C1478   1.484       .  S
C658        C749   1.486       .  S
C659        O660   1.268       .  A
C659       C1129   1.468       .  S
O661        C676   1.268       .  A
O661       Al669   1.937       .  S
C662        O672   1.268       .  A
C662        O663   1.260       .  A
C662       C1078   1.478       .  S
O663       Al665   1.879       .  S
O664        C666   1.267       .  A
O664       Al665   1.936       .  S
Al665       O673   1.935       .  S
Al665       O675   1.879       .  S
Al665       O674   1.778       .  S
C666        O679   1.260       .  A
C666        C949   1.484       .  S
O667        C677   1.265       .  A
O667       Al669   1.930       .  S
O668        C681   1.266       .  A
O668       Al678   1.933       .  S
Al669       O682   1.889       .  S
Al669       O679   1.892       .  S
Al669       O674   1.781       .  S
O670        C677   1.256       .  A
O670       Al678   1.869       .  S
O671        C680   1.259       .  A
O671       Al678   1.889       .  S
O672       Al678   1.938       .  S
O673        C680   1.265       .  A
O674       Al678   1.777       .  S
O675        C676   1.261       .  A
C676       C1489   1.472       .  S
C677        C818   1.472       .  S
C680        C709   1.485       .  S
C681        O682   1.261       .  A
C681       C1418   1.482       .  S
O683        C698   1.264       .  A
O683       Al691   1.917       .  S
C684        O694   1.261       .  A
C684        O685   1.260       .  A
C684        C989   1.481       .  S
O685       Al687   1.901       .  S
O686        C688   1.264       .  A
O686       Al687   1.924       .  S
Al687       O695   1.922       .  S
Al687       O697   1.875       .  S
Al687       O696   1.798       .  S
C688        O701   1.256       .  A
C688       C1189   1.483       .  S
O689        C699   1.264       .  A
O689       Al691   1.922       .  S
O690        C703   1.265       .  A
O690       Al700   1.923       .  S
Al691       O704   1.880       .  S
Al691       O701   1.879       .  S
Al691       O696   1.796       .  S
O692        C699   1.255       .  A
O692       Al700   1.867       .  S
O693        C702   1.257       .  A
O693       Al700   1.884       .  S
O694       Al700   1.903       .  S
O695        C702   1.262       .  A
O696       Al700   1.795       .  S
O697        C698   1.258       .  A
C698       C1458   1.476       .  S
C699        C729   1.474       .  S
C702        C718   1.486       .  S
C703        O704   1.258       .  A
C703       C1598   1.482       .  S
C705        C706   1.407       .  A
C705        C710   1.397       .  A
C705        H715   1.083       .  S
C706        C711   1.490       .  S
C706        C707   1.406       .  A
C707        C708   1.403       .  A
C707        H712   1.083       .  S
C708        C709   1.407       .  A
C708        H713   1.083       .  S
C709        C710   1.405       .  A
C710        H714   1.083       .  S
C711        C716   1.409       .  A
C711        C720   1.403       .  A
C716        C717   1.407       .  A
C716        H721   1.083       .  S
C717        C718   1.406       .  A
C717        H722   1.083       .  S
C718        C719   1.407       .  A
C719        C720   1.393       .  A
C719        H723   1.083       .  S
C720        H724   1.083       .  S
C725        C726   1.401       .  A
C725        C730   1.387       .  A
C725        H735   1.082       .  S
C726        C731   1.481       .  S
C726        C727   1.410       .  A
C727        C728   1.403       .  A
C727        H732   1.084       .  S
C728        C729   1.403       .  A
C728        H733   1.082       .  S
C729        C730   1.406       .  A
C730        H734   1.085       .  S
C731        C736   1.407       .  A
C731        C740   1.404       .  A
C736        C737   1.393       .  A
C736        H741   1.084       .  S
C737        C738   1.402       .  A
C737        H742   1.082       .  S
C738        C739   1.405       .  A
C739        C740   1.397       .  A
C739        H743   1.084       .  S
C740        H744   1.082       .  S
C745        C746   1.407       .  A
C745        C750   1.404       .  A
C745        H755   1.083       .  S
C746        C751   1.491       .  S
C746        C747   1.405       .  A
C747        C748   1.398       .  A
C747        H752   1.083       .  S
C748        C749   1.406       .  A
C748        H753   1.083       .  S
C749        C750   1.407       .  A
C750        H754   1.083       .  S
C751        C756   1.407       .  A
C751        C760   1.405       .  A
C756        C757   1.404       .  A
C756        H761   1.082       .  S
C757        C758   1.407       .  A
C757        H762   1.083       .  S
C758        C759   1.407       .  A
C759        C760   1.398       .  A
C759        H763   1.083       .  S
C760        H764   1.083       .  S
C765        C766   1.403       .  A
C765        C770   1.389       .  A
C765        H775   1.082       .  S
C766        C771   1.481       .  S
C766        C767   1.408       .  A
C767        C768   1.398       .  A
C767        H772   1.083       .  S
C768        C769   1.403       .  A
C768        H773   1.082       .  S
C769        C770   1.405       .  A
C770        H774   1.084       .  S
C771        C776   1.405       .  A
C771        C780   1.407       .  A
C776        C777   1.390       .  A
C776        H781   1.083       .  S
C777        C778   1.401       .  A
C777        H782   1.083       .  S
C778        C779   1.403       .  A
C779        C780   1.396       .  A
C779        H783   1.084       .  S
C780        H784   1.082       .  S
C785        C786   1.409       .  A
C785        C790   1.395       .  A
C785        H795   1.082       .  S
C786        C791   1.499       .  S
C786        C787   1.412       .  A
C787        C788   1.405       .  A
C787        H792   1.082       .  S
C788        C789   1.403       .  A
C788        H793   1.083       .  S
C789        C790   1.402       .  A
C790        H794   1.084       .  S
C791        C796   1.409       .  A
C791        C800   1.411       .  A
C796        C797   1.395       .  A
C796        H801   1.082       .  S
C797        C798   1.402       .  A
C797        H802   1.083       .  S
C798        C799   1.405       .  A
C799        C800   1.405       .  A
C799        H803   1.083       .  S
C800        H804   1.082       .  S
C805        C806   1.407       .  A
C805        C810   1.396       .  A
C805        H815   1.083       .  S
C806        C811   1.483       .  S
C806        C807   1.406       .  A
C807        C808   1.391       .  A
C807        H812   1.082       .  S
C808        C809   1.402       .  A
C808        H813   1.084       .  S
C809        C810   1.404       .  A
C810        H814   1.083       .  S
C811        C816   1.409       .  A
C811        C820   1.404       .  A
C816        C817   1.399       .  A
C816        H821   1.082       .  S
C817        C818   1.402       .  A
C817        H822   1.083       .  S
C818        C819   1.404       .  A
C819        C820   1.389       .  A
C819        H823   1.083       .  S
C820        H824   1.083       .  S
C825        C826   1.398       .  A
C825        C830   1.383       .  A
C825        H835   1.082       .  S
C826        C831   1.477   1_454  S
C826        C827   1.409   1_554  A
C827        C828   1.404   1_556  A
C827        H832   1.084   1_455  S
C828        C829   1.404       .  A
C828        H833   1.082   1_554  S
C829        C830   1.406       .  A
C830        H834   1.084       .  S
C831        C836   1.406   1_556  A
C831        C840   1.403   1_655  A
C836        C837   1.391   1_554  A
C836        H841   1.084       .  S
C837        C838   1.403       .  A
C837        H842   1.082   1_556  S
C838        C839   1.407   1_655  A
C839        C840   1.396       .  A
C839        H843   1.084       .  S
C840        H844   1.082       .  S
C845        C846   1.404       .  A
C845        C850   1.398       .  A
C845        H855   1.083       .  S
C846        C851   1.489       .  S
C846        C847   1.407       .  A
C847        C848   1.403       .  A
C847        H852   1.083       .  S
C848        C849   1.407       .  A
C848        H853   1.083       .  S
C849        C850   1.407       .  A
C850        H854   1.083       .  S
C851        C856   1.406       .  A
C851        C860   1.405       .  A
C856        C857   1.400       .  A
C856        H861   1.083       .  S
C857        C858   1.406       .  A
C857        H862   1.083       .  S
C858        C859   1.407       .  A
C859        C860   1.402       .  A
C859        H863   1.083       .  S
C860        H864   1.083       .  S
C865        C866   1.402       .  A
C865        C870   1.385       .  A
C865        H875   1.083       .  S
C866        C871   1.477       .  S
C866        C867   1.409       .  A
C867        C868   1.401       .  A
C867        H872   1.083       .  S
C868        C869   1.400       .  A
C868        H873   1.083       .  S
C869        C870   1.402       .  A
C870        H874   1.084       .  S
C871        C876   1.405       .  A
C871        C880   1.405       .  A
C876        C877   1.398       .  A
C876        H881   1.083       .  S
C877        C878   1.405       .  A
C877        H882   1.083       .  S
C878        C879   1.401       .  A
C879        C880   1.388       .  A
C879        H883   1.083       .  S
C880        H884   1.083       .  S
C885        C886   1.406       .  A
C885        C890   1.400       .  A
C885        H895   1.084   1_556  S
C886        C891   1.489   1_556  S
C886        C887   1.406       .  A
C887        C888   1.399       .  A
C887        H892   1.081       .  S
C888        C889   1.407       .  A
C888        H893   1.084       .  S
C889        C890   1.406       .  A
C890        H894   1.082       .  S
C891        C896   1.408       .  A
C891        C900   1.404   1_554  A
C896        C897   1.402       .  A
C896        H901   1.081       .  S
C897        C898   1.405       .  A
C897        H902   1.085       .  S
C898        C899   1.407       .  A
C899        C900   1.398   1_554  A
C899        H903   1.081   1_554  S
C900        H904   1.085       .  S
C905        C906   1.406       .  A
C905        C910   1.392       .  A
C905        H915   1.083       .  S
C906        C911   1.483       .  S
C906        C907   1.406       .  A
C907        C908   1.397       .  A
C907        H912   1.082       .  S
C908        C909   1.404       .  A
C908        H913   1.083       .  S
C909        C910   1.402       .  A
C910        H914   1.083       .  S
C911        C916   1.407       .  A
C911        C920   1.406       .  A
C916        C917   1.393       .  A
C916        H921   1.083       .  S
C917        C918   1.401       .  A
C917        H922   1.083       .  S
C918        C919   1.403       .  A
C919        C920   1.396       .  A
C919        H923   1.084       .  S
C920        H924   1.082       .  S
C925        C926   1.405       .  A
C925        C930   1.396       .  A
C925        H935   1.083       .  S
C926        C931   1.484       .  S
C926        C927   1.405       .  A
C927        C928   1.401       .  A
C927        H932   1.083       .  S
C928        C929   1.407       .  A
C928        H933   1.083       .  S
C929        C930   1.405       .  A
C930        H934   1.083       .  S
C931        C936   1.404       .  A
C931        C940   1.406       .  A
C936        C937   1.395       .  A
C936        H941   1.083       .  S
C937        C938   1.406       .  A
C937        H942   1.084       .  S
C938        C939   1.407       .  A
C939        C940   1.402       .  A
C939        H943   1.082       .  S
C940        H944   1.084       .  S
C945        C946   1.408       .  A
C945        C950   1.399       .  A
C945        H955   1.082       .  S
C946        C951   1.493       .  S
C946        C947   1.407       .  A
C947        C948   1.400       .  A
C947        H952   1.083       .  S
C948        C949   1.407       .  A
C948        H953   1.082       .  S
C949        C950   1.405       .  A
C950        H954   1.084       .  S
C951        C956   1.408       .  A
C951        C960   1.407       .  A
C956        C957   1.400       .  A
C956        H961   1.083       .  S
C957        C958   1.405       .  A
C957        H962   1.082       .  S
C958        C959   1.406       .  A
C959        C960   1.399       .  A
C959        H963   1.084       .  S
C960        H964   1.082       .  S
C965        C966   1.410       .  A
C965        C970   1.404       .  A
C965        H975   1.083       .  S
C966        C971   1.498       .  S
C966        C967   1.407       .  A
C967        C968   1.399       .  A
C967        H972   1.082       .  S
C968        C969   1.407       .  A
C968        H973   1.083       .  S
C969        C970   1.406       .  A
C970        H974   1.083       .  S
C971        C976   1.409       .  A
C971        C980   1.408       .  A
C976        C977   1.403       .  A
C976        H981   1.081       .  S
C977        C978   1.406       .  A
C977        H982   1.084       .  S
C978        C979   1.407       .  A
C979        C980   1.400       .  A
C979        H983   1.082       .  S
C980        H984   1.083       .  S
C985        C986   1.409       .  A
C985        C990   1.399       .  A
C985        H995   1.082       .  S
C986        C991   1.491       .  S
C986        C987   1.405       .  A
C987        C988   1.398       .  A
C987        H992   1.083       .  S
C988        C989   1.407       .  A
C988        H993   1.083       .  S
C989        C990   1.403       .  A
C990        H994   1.084       .  S
C991        C996   1.406       .  A
C991       C1000   1.410       .  A
C996        C997   1.397       .  A
C996       H1001   1.083       .  S
C997        C998   1.405       .  A
C997       H1002   1.083       .  S
C998        C999   1.403       .  A
C999       C1000   1.400       .  A
C999       H1003   1.084       .  S
C1000      H1004   1.082       .  S
C1005      C1006   1.406       .  A
C1005      C1010   1.391       .  A
C1005      H1015   1.083       .  S
C1006      C1011   1.483   1_655  S
C1006      C1007   1.406   1_655  A
C1007      C1008   1.398       .  A
C1007      H1012   1.082       .  S
C1008      C1009   1.405   1_455  A
C1008      H1013   1.084       .  S
C1009      C1010   1.402       .  A
C1010      H1014   1.083       .  S
C1011      C1016   1.402   1_455  A
C1011      C1020   1.410       .  A
C1016      C1017   1.386   1_655  A
C1016      H1021   1.082       .  S
C1017      C1018   1.403       .  A
C1017      H1022   1.084       .  S
C1018      C1019   1.403       .  A
C1019      C1020   1.403       .  A
C1019      H1023   1.082       .  S
C1020      H1024   1.083       .  S
C1025      C1026   1.411       .  A
C1025      C1030   1.404       .  A
C1025      H1035   1.082       .  S
C1026      C1031   1.504       .  S
C1026      C1027   1.411       .  A
C1027      C1028   1.399       .  A
C1027      H1032   1.081       .  S
C1028      C1029   1.403       .  A
C1028      H1033   1.083       .  S
C1029      C1030   1.405       .  A
C1030      H1034   1.083       .  S
C1031      C1036   1.413       .  A
C1031      C1040   1.409       .  A
C1036      C1037   1.406       .  A
C1036      H1041   1.082       .  S
C1037      C1038   1.403       .  A
C1037      H1042   1.083       .  S
C1038      C1039   1.403       .  A
C1039      C1040   1.397       .  A
C1039      H1043   1.084       .  S
C1040      H1044   1.082       .  S
C1045      C1046   1.402       .  A
C1045      C1050   1.397       .  A
C1045      H1055   1.085       .  S
C1046      C1051   1.487       .  S
C1046      C1047   1.408       .  A
C1047      C1048   1.404       .  A
C1047      H1052   1.081       .  S
C1048      C1049   1.405       .  A
C1048      H1053   1.085       .  S
C1049      C1050   1.408       .  A
C1050      H1054   1.081       .  S
C1051      C1056   1.406       .  A
C1051      C1060   1.404       .  A
C1056      C1057   1.400       .  A
C1056      H1061   1.082       .  S
C1057      C1058   1.406       .  A
C1057      H1062   1.084       .  S
C1058      C1059   1.408       .  A
C1059      C1060   1.400       .  A
C1059      H1063   1.082       .  S
C1060      H1064   1.084       .  S
C1065      C1066   1.408       .  A
C1065      C1070   1.402       .  A
C1065      H1075   1.082       .  S
C1066      C1071   1.494       .  S
C1066      C1067   1.408       .  A
C1067      C1068   1.396       .  A
C1067      H1072   1.082       .  S
C1068      C1069   1.404       .  A
C1068      H1073   1.083       .  S
C1069      C1070   1.407       .  A
C1070      H1074   1.083       .  S
C1071      C1076   1.410       .  A
C1071      C1080   1.407       .  A
C1076      C1077   1.402       .  A
C1076      H1081   1.082       .  S
C1077      C1078   1.404       .  A
C1077      H1082   1.083       .  S
C1078      C1079   1.403       .  A
C1079      C1080   1.397       .  A
C1079      H1083   1.083       .  S
C1080      H1084   1.082       .  S
C1085      C1086   1.407       .  A
C1085      C1090   1.394       .  A
C1085      H1095   1.083       .  S
C1086      C1091   1.484       .  S
C1086      C1087   1.406       .  A
C1087      C1088   1.396       .  A
C1087      H1092   1.082       .  S
C1088      C1089   1.403       .  A
C1088      H1093   1.084       .  S
C1089      C1090   1.402       .  A
C1090      H1094   1.083       .  S
C1091      C1096   1.407       .  A
C1091      C1100   1.407       .  A
C1096      C1097   1.394       .  A
C1096      H1101   1.083       .  S
C1097      C1098   1.401       .  A
C1097      H1102   1.083       .  S
C1098      C1099   1.403       .  A
C1099      C1100   1.397       .  A
C1099      H1103   1.084       .  S
C1100      H1104   1.082       .  S
C1105      C1106   1.406       .  A
C1105      C1110   1.399       .  A
C1105      H1115   1.081       .  S
C1106      C1111   1.491       .  S
C1106      C1107   1.407       .  A
C1107      C1108   1.400       .  A
C1107      H1112   1.084       .  S
C1108      C1109   1.406       .  A
C1108      H1113   1.082       .  S
C1109      C1110   1.407       .  A
C1110      H1114   1.084       .  S
C1111      C1116   1.406       .  A
C1111      C1120   1.407       .  A
C1116      C1117   1.401       .  A
C1116      H1121   1.085       .  S
C1117      C1118   1.407       .  A
C1117      H1122   1.081       .  S
C1118      C1119   1.405       .  A
C1119      C1120   1.399       .  A
C1119      H1123   1.085       .  S
C1120      H1124   1.081       .  S
C1125      C1126   1.409       .  A
C1125      C1130   1.402       .  A
C1125      H1135   1.083       .  S
C1126      C1131   1.478       .  S
C1126      C1127   1.401       .  A
C1127      C1128   1.384       .  A
C1127      H1132   1.083       .  S
C1128      C1129   1.403       .  A
C1128      H1133   1.084       .  S
C1129      C1130   1.403       .  A
C1130      H1134   1.083       .  S
C1131      C1136   1.404       .  A
C1131      C1140   1.405       .  A
C1136      C1137   1.385       .  A
C1136      H1141   1.083       .  S
C1137      C1138   1.402       .  A
C1137      H1142   1.083       .  S
C1138      C1139   1.405       .  A
C1139      C1140   1.400       .  A
C1139      H1143   1.083       .  S
C1140      H1144   1.083       .  S
C1145      C1146   1.405       .  A
C1145      C1150   1.391       .  A
C1145      H1155   1.083       .  S
C1146      C1151   1.482       .  S
C1146      C1147   1.407       .  A
C1147      C1148   1.397       .  A
C1147      H1152   1.082       .  S
C1148      C1149   1.403       .  A
C1148      H1153   1.084       .  S
C1149      C1150   1.402       .  A
C1150      H1154   1.083       .  S
C1151      C1156   1.403       .  A
C1151      C1160   1.408       .  A
C1156      C1157   1.390       .  A
C1156      H1161   1.082       .  S
C1157      C1158   1.405       .  A
C1157      H1162   1.084       .  S
C1158      C1159   1.403       .  A
C1159      C1160   1.399       .  A
C1159      H1163   1.083       .  S
C1160      H1164   1.083       .  S
C1165      C1166   1.406       .  A
C1165      C1170   1.398       .  A
C1165      H1175   1.083       .  S
C1166      C1171   1.489       .  S
C1166      C1167   1.407       .  A
C1167      C1168   1.402       .  A
C1167      H1172   1.083       .  S
C1168      C1169   1.406       .  A
C1168      H1173   1.083       .  S
C1169      C1170   1.405       .  A
C1170      H1174   1.083       .  S
C1171      C1176   1.405       .  A
C1171      C1180   1.407       .  A
C1176      C1177   1.397       .  A
C1176      H1181   1.083       .  S
C1177      C1178   1.406       .  A
C1177      H1182   1.083       .  S
C1178      C1179   1.407       .  A
C1179      C1180   1.403       .  A
C1179      H1183   1.083       .  S
C1180      H1184   1.083       .  S
C1185      C1186   1.402       .  A
C1185      C1190   1.396       .  A
C1185      H1195   1.084       .  S
C1186      C1191   1.489       .  S
C1186      C1187   1.410       .  A
C1187      C1188   1.403       .  A
C1187      H1192   1.081       .  S
C1188      C1189   1.403       .  A
C1188      H1193   1.084       .  S
C1189      C1190   1.409       .  A
C1190      H1194   1.082       .  S
C1191      C1196   1.407       .  A
C1191      C1200   1.405       .  A
C1196      C1197   1.400       .  A
C1196      H1201   1.082       .  S
C1197      C1198   1.405       .  A
C1197      H1202   1.084       .  S
C1198      C1199   1.407       .  A
C1199      C1200   1.398       .  A
C1199      H1203   1.082       .  S
C1200      H1204   1.084       .  S
C1205      C1206   1.409       .  A
C1205      C1210   1.398       .  A
C1205      H1215   1.083       .  S
C1206      C1211   1.485       .  S
C1206      C1207   1.404       .  A
C1207      C1208   1.392       .  A
C1207      H1212   1.082       .  S
C1208      C1209   1.406       .  A
C1208      H1213   1.083       .  S
C1209      C1210   1.403       .  A
C1210      H1214   1.083       .  S
C1211      C1216   1.406       .  A
C1211      C1220   1.407       .  A
C1216      C1217   1.395       .  A
C1216      H1221   1.082       .  S
C1217      C1218   1.403       .  A
C1217      H1222   1.084       .  S
C1218      C1219   1.403       .  A
C1219      C1220   1.394       .  A
C1219      H1223   1.083       .  S
C1220      H1224   1.083       .  S
C1225      C1226   1.408       .  A
C1225      C1230   1.401       .  A
C1225      H1235   1.084       .  S
C1226      C1231   1.495       .  S
C1226      C1227   1.407       .  A
C1227      C1228   1.400       .  A
C1227      H1232   1.081       .  S
C1228      C1229   1.407       .  A
C1228      H1233   1.084       .  S
C1229      C1230   1.406       .  A
C1230      H1234   1.082       .  S
C1231      C1236   1.408       .  A
C1231      C1240   1.407       .  A
C1236      C1237   1.400       .  A
C1236      H1241   1.081       .  S
C1237      C1238   1.405       .  A
C1237      H1242   1.084       .  S
C1238      C1239   1.408       .  A
C1239      C1240   1.401       .  A
C1239      H1243   1.082       .  S
C1240      H1244   1.084       .  S
C1245      C1246   1.410       .  A
C1245      C1250   1.398       .  A
C1245      H1255   1.082       .  S
C1246      C1251   1.497       .  S
C1246      C1247   1.411       .  A
C1247      C1248   1.399       .  A
C1247      H1252   1.081       .  S
C1248      C1249   1.402       .  A
C1248      H1253   1.084       .  S
C1249      C1250   1.402       .  A
C1250      H1254   1.083       .  S
C1251      C1256   1.411       .  A
C1251      C1260   1.410       .  A
C1256      C1257   1.397       .  A
C1256      H1261   1.081       .  S
C1257      C1258   1.401       .  A
C1257      H1262   1.083       .  S
C1258      C1259   1.404       .  A
C1259      C1260   1.400       .  A
C1259      H1263   1.083       .  S
C1260      H1264   1.082       .  S
C1265      C1266   1.405       .  A
C1265      C1270   1.395       .  A
C1265      H1275   1.082       .  S
C1266      C1271   1.476   1_556  S
C1266      C1267   1.405   1_556  A
C1267      C1268   1.390   1_554  A
C1267      H1272   1.084       .  S
C1268      C1269   1.401       .  A
C1268      H1273   1.083   1_556  S
C1269      C1270   1.403       .  A
C1270      H1274   1.084       .  S
C1271      C1276   1.409   1_554  A
C1271      C1280   1.402       .  A
C1276      C1277   1.399   1_556  A
C1276      H1281   1.083       .  S
C1277      C1278   1.400       .  A
C1277      H1282   1.082   1_554  S
C1278      C1279   1.402       .  A
C1279      C1280   1.386       .  A
C1279      H1283   1.085       .  S
C1280      H1284   1.082       .  S
C1285      C1286   1.413       .  A
C1285      C1290   1.408       .  A
C1285      H1295   1.082       .  S
C1286      C1291   1.497       .  S
C1286      C1287   1.406       .  A
C1287      C1288   1.393       .  A
C1287      H1292   1.082       .  S
C1288      C1289   1.402       .  A
C1288      H1293   1.083       .  S
C1289      C1290   1.404       .  A
C1290      H1294   1.083       .  S
C1291      C1296   1.409       .  A
C1291      C1300   1.410       .  A
C1296      C1297   1.404       .  A
C1296      H1301   1.082       .  S
C1297      C1298   1.406       .  A
C1297      H1302   1.084       .  S
C1298      C1299   1.401       .  A
C1299      C1300   1.396       .  A
C1299      H1303   1.083       .  S
C1300      H1304   1.082       .  S
C1305      C1306   1.409   1_554  A
C1305      C1310   1.403       .  A
C1305      H1315   1.082       .  S
C1306      C1311   1.489       .  S
C1306      C1307   1.404       .  A
C1307      C1308   1.397   1_556  A
C1307      H1312   1.084       .  S
C1308      C1309   1.407       .  A
C1308      H1313   1.082   1_554  S
C1309      C1310   1.405       .  A
C1310      H1314   1.084       .  S
C1311      C1316   1.406       .  A
C1311      C1320   1.406       .  A
C1316      C1317   1.400       .  A
C1316      H1321   1.083   1_556  S
C1317      C1318   1.407       .  A
C1317      H1322   1.083       .  S
C1318      C1319   1.406       .  A
C1319      C1320   1.399       .  A
C1319      H1323   1.083       .  S
C1320      H1324   1.082       .  S
C1325      C1326   1.407       .  A
C1325      C1330   1.398       .  A
C1325      H1335   1.082       .  S
C1326      C1331   1.489       .  S
C1326      C1327   1.407       .  A
C1327      C1328   1.399       .  A
C1327      H1332   1.083       .  S
C1328      C1329   1.405       .  A
C1328      H1333   1.083       .  S
C1329      C1330   1.406       .  A
C1330      H1334   1.083       .  S
C1331      C1336   1.407       .  A
C1331      C1340   1.407       .  A
C1336      C1337   1.399       .  A
C1336      H1341   1.083       .  S
C1337      C1338   1.406       .  A
C1337      H1342   1.083       .  S
C1338      C1339   1.405       .  A
C1339      C1340   1.397       .  A
C1339      H1343   1.083       .  S
C1340      H1344   1.082       .  S
C1345      C1346   1.407       .  A
C1345      C1350   1.403       .  A
C1345      H1355   1.083       .  S
C1346      C1351   1.497       .  S
C1346      C1347   1.409   1_554  A
C1347      C1348   1.399       .  A
C1347      H1352   1.081       .  S
C1348      C1349   1.404       .  A
C1348      H1353   1.084       .  S
C1349      C1350   1.409   1_556  A
C1350      H1354   1.082       .  S
C1351      C1356   1.408       .  A
C1351      C1360   1.410       .  A
C1356      C1357   1.398       .  A
C1356      H1361   1.083       .  S
C1357      C1358   1.403       .  A
C1357      H1362   1.083       .  S
C1358      C1359   1.404       .  A
C1359      C1360   1.404       .  A
C1359      H1363   1.084       .  S
C1360      H1364   1.082       .  S
C1365      C1366   1.406       .  A
C1365      C1370   1.399       .  A
C1365      H1375   1.083       .  S
C1366      C1371   1.483       .  S
C1366      C1367   1.405       .  A
C1367      C1368   1.394       .  A
C1367      H1372   1.083       .  S
C1368      C1369   1.404       .  A
C1368      H1373   1.083       .  S
C1369      C1370   1.406       .  A
C1370      H1374   1.083       .  S
C1371      C1376   1.405       .  A
C1371      C1380   1.406       .  A
C1376      C1377   1.395       .  A
C1376      H1381   1.083       .  S
C1377      C1378   1.405       .  A
C1377      H1382   1.083       .  S
C1378      C1379   1.405       .  A
C1379      C1380   1.397       .  A
C1379      H1383   1.083       .  S
C1380      H1384   1.083       .  S
C1385      C1386   1.404       .  A
C1385      C1390   1.396       .  A
C1385      H1395   1.083       .  S
C1386      C1391   1.486       .  S
C1386      C1387   1.406       .  A
C1387      C1388   1.404       .  A
C1387      H1392   1.083       .  S
C1388      C1389   1.409       .  A
C1388      H1393   1.083       .  S
C1389      C1390   1.405       .  A
C1390      H1394   1.083       .  S
C1391      C1396   1.404       .  A
C1391      C1400   1.406       .  A
C1396      C1397   1.395       .  A
C1396      H1401   1.083       .  S
C1397      C1398   1.405       .  A
C1397      H1402   1.083       .  S
C1398      C1399   1.408       .  A
C1399      C1400   1.405       .  A
C1399      H1403   1.083       .  S
C1400      H1404   1.083       .  S
C1405      C1406   1.408       .  A
C1405      C1410   1.396       .  A
C1405      H1415   1.083       .  S
C1406      C1411   1.496       .  S
C1406      C1407   1.411       .  A
C1407      C1408   1.402       .  A
C1407      H1412   1.080       .  S
C1408      C1409   1.403       .  A
C1408      H1413   1.085       .  S
C1409      C1410   1.403       .  A
C1410      H1414   1.082       .  S
C1411      C1416   1.408       .  A
C1411      C1420   1.410       .  A
C1416      C1417   1.395       .  A
C1416      H1421   1.080       .  S
C1417      C1418   1.404       .  A
C1417      H1422   1.084       .  S
C1418      C1419   1.405       .  A
C1419      C1420   1.403       .  A
C1419      H1423   1.082       .  S
C1420      H1424   1.084       .  S
C1425      C1426   1.407       .  A
C1425      C1430   1.397       .  A
C1425      H1435   1.082       .  S
C1426      C1431   1.491       .  S
C1426      C1427   1.407       .  A
C1427      C1428   1.400       .  A
C1427      H1432   1.083       .  S
C1428      C1429   1.406       .  A
C1428      H1433   1.083       .  S
C1429      C1430   1.405       .  A
C1430      H1434   1.083       .  S
C1431      C1436   1.407       .  A
C1431      C1440   1.408       .  A
C1436      C1437   1.398       .  A
C1436      H1441   1.083       .  S
C1437      C1438   1.406       .  A
C1437      H1442   1.083       .  S
C1438      C1439   1.405       .  A
C1439      C1440   1.398       .  A
C1439      H1443   1.083       .  S
C1440      H1444   1.082       .  S
C1445      C1446   1.406       .  A
C1445      C1450   1.401       .  A
C1445      H1455   1.083       .  S
C1446      C1451   1.481       .  S
C1446      C1447   1.406       .  A
C1447      C1448   1.390       .  A
C1447      H1452   1.083       .  S
C1448      C1449   1.401       .  A
C1448      H1453   1.084       .  S
C1449      C1450   1.405       .  A
C1450      H1454   1.083       .  S
C1451      C1456   1.409       .  A
C1451      C1460   1.401       .  A
C1456      C1457   1.404       .  A
C1456      H1461   1.083       .  S
C1457      C1458   1.404       .  A
C1457      H1462   1.082       .  S
C1458      C1459   1.406       .  A
C1459      C1460   1.388       .  A
C1459      H1463   1.084       .  S
C1460      H1464   1.083       .  S
C1465      C1466   1.412       .  A
C1465      C1470   1.406       .  A
C1465      H1475   1.083       .  S
C1466      C1471   1.503       .  S
C1466      C1467   1.408       .  A
C1467      C1468   1.396       .  A
C1467      H1472   1.080       .  S
C1468      C1469   1.406       .  A
C1468      H1473   1.085       .  S
C1469      C1470   1.404       .  A
C1470      H1474   1.082       .  S
C1471      C1476   1.411       .  A
C1471      C1480   1.410       .  A
C1476      C1477   1.404       .  A
C1476      H1481   1.080       .  S
C1477      C1478   1.404       .  A
C1477      H1482   1.084       .  S
C1478      C1479   1.404       .  A
C1479      C1480   1.399       .  A
C1479      H1483   1.082       .  S
C1480      H1484   1.083       .  S
C1485      C1486   1.403       .  A
C1485      C1490   1.401       .  A
C1485      H1495   1.083       .  S
C1486      C1491   1.475       .  S
C1486      C1487   1.404       .  A
C1487      C1488   1.392       .  A
C1487      H1492   1.083       .  S
C1488      C1489   1.402       .  A
C1488      H1493   1.083       .  S
C1489      C1490   1.406       .  A
C1490      H1494   1.083       .  S
C1491      C1496   1.408       .  A
C1491      C1500   1.399       .  A
C1496      C1497   1.405       .  A
C1496      H1501   1.083       .  S
C1497      C1498   1.404       .  A
C1497      H1502   1.083       .  S
C1498      C1499   1.406       .  A
C1499      C1500   1.388       .  A
C1499      H1503   1.084       .  S
C1500      H1504   1.083       .  S
C1505      C1506   1.401       .  A
C1505      C1510   1.389       .  A
C1505      H1515   1.082       .  S
C1506      C1511   1.482       .  S
C1506      C1507   1.409       .  A
C1507      C1508   1.402       .  A
C1507      H1512   1.083       .  S
C1508      C1509   1.403       .  A
C1508      H1513   1.082       .  S
C1509      C1510   1.406       .  A
C1510      H1514   1.084       .  S
C1511      C1516   1.406       .  A
C1511      C1520   1.405       .  A
C1516      C1517   1.394       .  A
C1516      H1521   1.084       .  S
C1517      C1518   1.404       .  A
C1517      H1522   1.083       .  S
C1518      C1519   1.405       .  A
C1519      C1520   1.398       .  A
C1519      H1523   1.084       .  S
C1520      H1524   1.082       .  S
C1525      C1526   1.407       .  A
C1525      C1530   1.395       .  A
C1525      H1535   1.083       .  S
C1526      C1531   1.494       .  S
C1526      C1527   1.411       .  A
C1527      C1528   1.404       .  A
C1527      H1532   1.082       .  S
C1528      C1529   1.403       .  A
C1528      H1533   1.084       .  S
C1529      C1530   1.401       .  A
C1530      H1534   1.083       .  S
C1531      C1536   1.408       .  A
C1531      C1540   1.409       .  A
C1536      C1537   1.396       .  A
C1536      H1541   1.082       .  S
C1537      C1538   1.403       .  A
C1537      H1542   1.083       .  S
C1538      C1539   1.406       .  A
C1539      C1540   1.403       .  A
C1539      H1543   1.083   1_565  S
C1540      H1544   1.082   1_565  S
C1545      C1546   1.412       .  A
C1545      C1550   1.403       .  A
C1545      H1555   1.080       .  S
C1546      C1551   1.505       .  S
C1546      C1547   1.412       .  A
C1547      C1548   1.399       .  A
C1547      H1552   1.082       .  S
C1548      C1549   1.402       .  A
C1548      H1553   1.082       .  S
C1549      C1550   1.404       .  A
C1550      H1554   1.084       .  S
C1551      C1556   1.415       .  A
C1551      C1560   1.408       .  A
C1556      C1557   1.408       .  A
C1556      H1561   1.083       .  S
C1557      C1558   1.404       .  A
C1557      H1562   1.082       .  S
C1558      C1559   1.405       .  A
C1559      C1560   1.393       .  A
C1559      H1563   1.085       .  S
C1560      H1564   1.079       .  S
C1565      C1566   1.404       .  A
C1565      C1570   1.393       .  A
C1565      H1575   1.082       .  S
C1566      C1571   1.481       .  S
C1566      C1567   1.407       .  A
C1567      C1568   1.395       .  A
C1567      H1572   1.083       .  S
C1568      C1569   1.404       .  A
C1568      H1573   1.083       .  S
C1569      C1570   1.405       .  A
C1570      H1574   1.084       .  S
C1571      C1576   1.409       .  A
C1571      C1580   1.402       .  A
C1576      C1577   1.399       .  A
C1576      H1581   1.083       .  S
C1577      C1578   1.401       .  A
C1577      H1582   1.083       .  S
C1578      C1579   1.406       .  A
C1579      C1580   1.390       .  A
C1579      H1583   1.084       .  S
C1580      H1584   1.082       .  S
C1585      C1586   1.410       .  A
C1585      C1590   1.402       .  A
C1585      H1595   1.081       .  S
C1586      C1591   1.497       .  S
C1586      C1587   1.410       .  A
C1587      C1588   1.398       .  A
C1587      H1592   1.083       .  S
C1588      C1589   1.402       .  A
C1588      H1593   1.083       .  S
C1589      C1590   1.403       .  A
C1590      H1594   1.084       .  S
C1591      C1596   1.412       .  A
C1591      C1600   1.406       .  A
C1596      C1597   1.405       .  A
C1596      H1601   1.083       .  S
C1597      C1598   1.404       .  A
C1597      H1602   1.082       .  S
C1598      C1599   1.406       .  A
C1599      C1600   1.393       .  A
C1599      H1603   1.084       .  S
C1600      H1604   1.081       .  S
C1605      C1606   1.407       .  A
C1605      C1610   1.396       .  A
C1605      H1615   1.082       .  S
C1606      C1611   1.485       .  S
C1606      C1607   1.406       .  A
C1607      C1608   1.396       .  A
C1607      H1612   1.083       .  S
C1608      C1609   1.405       .  A
C1608      H1613   1.083       .  S
C1609      C1610   1.404       .  A
C1610      H1614   1.083       .  S
C1611      C1616   1.406       .  A
C1611      C1620   1.406       .  A
C1616      C1617   1.398       .  A
C1616      H1621   1.083       .  S
C1617      C1618   1.405       .  A
C1617      H1622   1.083       .  S
C1618      C1619   1.405       .  A
C1619      C1620   1.394       .  A
C1619      H1623   1.083       .  S
C1620      H1624   1.083       .  S
C1625      C1626   1.405       .  A
C1625      C1630   1.401       .  A
C1625      H1635   1.083       .  S
C1626      C1631   1.489       .  S
C1626      C1627   1.406       .  A
C1627      C1628   1.401       .  A
C1627      H1632   1.083       .  S
C1628      C1629   1.405       .  A
C1628      H1633   1.083       .  S
C1629      C1630   1.408       .  A
C1630      H1634   1.083       .  S
C1631      C1636   1.406       .  A
C1631      C1640   1.405       .  A
C1636      C1637   1.401       .  A
C1636      H1641   1.083       .  S
C1637      C1638   1.407       .  A
C1637      H1642   1.084       .  S
C1638      C1639   1.407       .  A
C1639      C1640   1.400       .  A
C1639      H1643   1.082       .  S
C1640      H1644   1.083       .  S
C1645      C1646   1.412       .  A
C1645      C1650   1.401       .  A
C1645      H1655   1.082       .  S
C1646      C1651   1.509       .  S
C1646      C1647   1.413       .  A
C1647      C1648   1.405       .  A
C1647      H1652   1.080       .  S
C1648      C1649   1.404       .  A
C1648      H1653   1.084       .  S
C1649      C1650   1.404       .  A
C1650      H1654   1.082   1_455  S
C1651      C1656   1.411       .  A
C1651      C1660   1.413       .  A
C1656      C1657   1.400       .  A
C1656      H1661   1.080       .  S
C1657      C1658   1.405       .  A
C1657      H1662   1.084       .  S
C1658      C1659   1.406       .  A
C1659      C1660   1.406       .  A
C1659      H1663   1.082       .  S
C1660      H1664   1.082       .  S
C1665      C1666   1.408       .  A
C1665      C1670   1.400       .  A
C1665      H1675   1.083       .  S
C1666      C1671   1.491       .  S
C1666      C1667   1.407       .  A
C1667      C1668   1.397       .  A
C1667      H1672   1.082       .  S
C1668      C1669   1.405       .  A
C1668      H1673   1.083       .  S
C1669      C1670   1.405       .  A
C1670      H1674   1.083       .  S
C1671      C1676   1.407       .  A
C1671      C1680   1.407       .  A
C1676      C1677   1.398       .  A
C1676      H1681   1.082       .  S
C1677      C1678   1.405       .  A
C1677      H1682   1.083       .  S
C1678      C1679   1.406       .  A
C1679      C1680   1.399       .  A
C1679      H1683   1.083       .  S
C1680      H1684   1.083       .  S
C1685      C1686   1.406       .  A
C1685      C1690   1.404       .  A
C1685      H1695   1.083       .  S
C1686      C1691   1.477       .  S
C1686      C1687   1.402       .  A
C1687      C1688   1.386       .  A
C1687      H1692   1.084       .  S
C1688      C1689   1.403       .  A
C1688      H1693   1.084       .  S
C1689      C1690   1.405       .  A
C1690      H1694   1.083       .  S
C1691      C1696   1.407       .  A
C1691      C1700   1.401       .  A
C1696      C1697   1.405       .  A
C1696      H1701   1.083       .  S
C1697      C1698   1.406       .  A
C1697      H1702   1.083       .  S
C1698      C1699   1.404       .  A
C1699      C1700   1.386       .  A
C1699      H1703   1.083       .  S
C1700      H1704   1.084       .  S
C1705      C1706   1.409       .  A
C1705      C1710   1.403       .  A
C1705      H1715   1.083       .  S
C1706      C1711   1.479   1_455  S
C1706      C1707   1.400       .  A
C1707      C1708   1.384       .  A
C1707      H1712   1.083       .  S
C1708      C1709   1.405       .  A
C1708      H1713   1.084       .  S
C1709      C1710   1.403       .  A
C1710      H1714   1.083       .  S
C1711      C1716   1.404   1_655  A
C1711      C1720   1.406       .  A
C1716      C1717   1.397       .  A
C1716      H1721   1.083       .  S
C1717      C1718   1.406   1_455  A
C1717      H1722   1.083       .  S
C1718      C1719   1.402       .  A
C1719      C1720   1.390       .  A
C1719      H1723   1.083       .  S
C1720      H1724   1.083       .  S
C1725      C1726   1.407       .  A
C1725      C1730   1.394       .  A
C1725      H1735   1.080       .  S
C1726      C1731   1.506       .  S
C1726      C1727   1.414       .  A
C1727      C1728   1.411       .  A
C1727      H1732   1.083       .  S
C1728      C1729   1.407       .  A
C1728      H1733   1.082       .  S
C1729      C1730   1.406       .  A
C1730      H1734   1.084       .  S
C1731      C1736   1.411       .  A
C1731      C1740   1.412       .  A
C1736      C1737   1.399       .  A
C1736      H1741   1.082       .  S
C1737      C1738   1.402       .  A
C1737      H1742   1.083       .  S
C1738      C1739   1.405       .  A
C1739      C1740   1.407       .  A
C1739      H1743   1.084       .  S
C1740      H1744   1.081       .  S
C1745      C1746   1.400       .  A
C1745      C1750   1.394       .  A
C1745      H1755   1.083       .  S
C1746      C1751   1.478       .  S
C1746      C1747   1.409       .  A
C1747      C1748   1.400       .  A
C1747      H1752   1.083       .  S
C1748      C1749   1.400       .  A
C1748      H1753   1.083       .  S
C1749      C1750   1.404       .  A
C1750      H1754   1.084       .  S
C1751      C1756   1.399       .  A
C1751      C1760   1.408       .  A
C1756      C1757   1.390       .  A
C1756      H1761   1.083       .  S
C1757      C1758   1.408       .  A
C1757      H1762   1.084       .  S
C1758      C1759   1.404       .  A
C1759      C1760   1.404       .  A
C1759      H1763   1.082       .  S
C1760      H1764   1.084       .  S
C1765      C1766   1.404       .  A
C1765      C1770   1.396       .  A
C1765      H1775   1.082       .  S
C1766      C1771   1.484   1_556  S
C1766      C1767   1.407   1_556  A
C1767      C1768   1.395   1_554  A
C1767      H1772   1.083       .  S
C1768      C1769   1.403       .  A
C1768      H1773   1.083       .  S
C1769      C1770   1.405       .  A
C1770      H1774   1.084       .  S
C1771      C1776   1.411   1_554  A
C1771      C1780   1.401       .  A
C1776      C1777   1.404       .  A
C1776      H1781   1.083       .  S
C1777      C1778   1.402   1_556  A
C1777      H1782   1.082       .  S
C1778      C1779   1.406       .  A
C1779      C1780   1.388       .  A
C1779      H1783   1.084       .  S
C1780      H1784   1.082       .  S
C1785      C1786   1.407       .  A
C1785      C1790   1.395       .  A
C1785      H1795   1.082       .  S
C1786      C1791   1.494       .  S
C1786      C1787   1.411       .  A
C1787      C1788   1.405       .  A
C1787      H1792   1.082       .  S
C1788      C1789   1.403       .  A
C1788      H1793   1.083       .  S
C1789      C1790   1.402       .  A
C1790      H1794   1.084       .  S
C1791      C1796   1.407       .  A
C1791      C1800   1.408       .  A
C1796      C1797   1.396       .  A
C1796      H1801   1.083       .  S
C1797      C1798   1.405       .  A
C1797      H1802   1.083       .  S
C1798      C1799   1.407       .  A
C1799      C1800   1.404       .  A
C1799      H1803   1.083   1_565  S
C1800      H1804   1.082   1_565  S
C1805      C1806   1.412       .  A
C1805      C1810   1.404   1_554  A
C1805      H1815   1.080       .  S
C1806      C1811   1.504       .  S
C1806      C1807   1.411   1_554  A
C1807      C1808   1.399       .  A
C1807      H1812   1.083       .  S
C1808      C1809   1.402       .  A
C1808      H1813   1.083   1_455  S
C1809      C1810   1.404       .  A
C1810      H1814   1.084       .  S
C1811      C1816   1.414       .  A
C1811      C1820   1.408       .  A
C1816      C1817   1.407       .  A
C1816      H1821   1.083       .  S
C1817      C1818   1.404       .  A
C1817      H1822   1.082       .  S
C1818      C1819   1.405       .  A
C1819      C1820   1.395       .  A
C1819      H1823   1.085       .  S
C1820      H1824   1.080   1_554  S
C1825      C1826   1.404       .  A
C1825      C1830   1.400       .  A
C1825      H1835   1.083       .  S
C1826      C1831   1.476       .  S
C1826      C1827   1.404       .  A
C1827      C1828   1.390       .  A
C1827      H1832   1.083       .  S
C1828      C1829   1.403       .  A
C1828      H1833   1.084       .  S
C1829      C1830   1.405       .  A
C1830      H1834   1.083       .  S
C1831      C1836   1.408       .  A
C1831      C1840   1.399       .  A
C1836      C1837   1.404       .  A
C1836      H1841   1.083       .  S
C1837      C1838   1.405       .  A
C1837      H1842   1.083       .  S
C1838      C1839   1.407       .  A
C1839      C1840   1.386       .  A
C1839      H1843   1.083       .  S
C1840      H1844   1.083       .  S
C1845      C1846   1.413       .  A
C1845      C1850   1.409       .  A
C1845      H1855   1.083       .  S
C1846      C1851   1.504       .  S
C1846      C1847   1.407       .  A
C1847      C1848   1.395       .  A
C1847      H1852   1.081       .  S
C1848      C1849   1.406       .  A
C1848      H1853   1.084       .  S
C1849      C1850   1.406       .  A
C1850      H1854   1.082       .  S
C1851      C1856   1.412       .  A
C1851      C1860   1.410       .  A
C1856      C1857   1.406   1_565  A
C1856      H1861   1.080   1_565  S
C1857      C1858   1.405       .  A
C1857      H1862   1.085       .  S
C1858      C1859   1.403   1_545  A
C1859      C1860   1.399       .  A
C1859      H1863   1.082       .  S
C1860      H1864   1.083       .  S
C1865      C1866   1.408       .  A
C1865      C1870   1.402       .  A
C1865      H1875   1.082       .  S
C1866      C1871   1.483       .  S
C1866      C1867   1.402       .  A
C1867      C1868   1.394       .  A
C1867      H1872   1.084       .  S
C1868      C1869   1.407       .  A
C1868      H1873   1.082       .  S
C1869      C1870   1.404       .  A
C1870      H1874   1.084       .  S
C1871      C1876   1.404       .  A
C1871      C1880   1.405       .  A
C1876      C1877   1.398       .  A
C1876      H1881   1.085       .  S
C1877      C1878   1.407       .  A
C1877      H1882   1.082       .  S
C1878      C1879   1.405       .  A
C1879      C1880   1.397       .  A
C1879      H1883   1.084       .  S
C1880      H1884   1.081       .  S
C1885      C1886   1.410       .  A
C1885      C1890   1.402       .  A
C1885      H1895   1.082       .  S
C1886      C1891   1.494       .  S
C1886      C1887   1.406       .  A
C1887      C1888   1.397       .  A
C1887      H1892   1.083       .  S
C1888      C1889   1.405       .  A
C1888      H1893   1.083       .  S
C1889      C1890   1.404       .  A
C1890      H1894   1.083       .  S
C1891      C1896   1.407       .  A
C1891      C1900   1.409       .  A
C1896      C1897   1.401       .  A
C1896      H1901   1.083       .  S
C1897      C1898   1.407       .  A
C1897      H1902   1.083       .  S
C1898      C1899   1.403       .  A
C1899      C1900   1.398       .  A
C1899      H1903   1.083       .  S
C1900      H1904   1.082       .  S
C1905      C1906   1.399       .  A
C1905      C1910   1.390       .  A
C1905      H1915   1.083       .  S
C1906      C1911   1.477       .  S
C1906      C1907   1.408       .  A
C1907      C1908   1.402       .  A
C1907      H1912   1.083       .  S
C1908      C1909   1.403       .  A
C1908      H1913   1.083       .  S
C1909      C1910   1.407       .  A
C1910      H1914   1.083       .  S
C1911      C1916   1.400       .  A
C1911      C1920   1.408       .  A
C1916      C1917   1.391       .  A
C1916      H1921   1.083       .  S
C1917      C1918   1.407       .  A
C1917      H1922   1.084       .  S
C1918      C1919   1.402       .  A
C1919      C1920   1.401       .  A
C1919      H1923   1.082       .  S
C1920      H1924   1.084       .  S
C1925      C1926   1.406       .  A
C1925      C1930   1.394       .  A
C1925      H1935   1.083       .  S
C1926      C1931   1.490       .  S
C1926      C1927   1.408       .  A
C1927      C1928   1.404       .  A
C1927      H1932   1.083       .  S
C1928      C1929   1.407       .  A
C1928      H1933   1.083       .  S
C1929      C1930   1.405       .  A
C1930      H1934   1.083       .  S
C1931      C1936   1.408       .  A
C1931      C1940   1.405       .  A
C1936      C1937   1.404       .  A
C1936      H1941   1.083       .  S
C1937      C1938   1.406       .  A
C1937      H1942   1.083       .  S
C1938      C1939   1.405       .  A
C1939      C1940   1.394       .  A
C1939      H1943   1.083       .  S
C1940      H1944   1.083       .  S
C1945      C1946   1.409       .  A
C1945      C1950   1.399       .  A
C1945      H1955   1.083       .  S
C1946      C1951   1.501       .  S
C1946      C1947   1.411       .  A
C1947      C1948   1.405   1_565  A
C1947      H1952   1.081       .  S
C1948      C1949   1.405   1_545  A
C1948      H1953   1.084       .  S
C1949      C1950   1.404       .  A
C1950      H1954   1.083   1_455  S
C1951      C1956   1.406       .  A
C1951      C1960   1.412       .  A
C1956      C1957   1.395       .  A
C1956      H1961   1.081       .  S
C1957      C1958   1.407       .  A
C1957      H1962   1.084       .  S
C1958      C1959   1.406       .  A
C1959      C1960   1.409       .  A
C1959      H1963   1.082       .  S
C1960      H1964   1.083       .  S
C1965      C1966   1.409       .  A
C1965      C1970   1.403       .  A
C1965      H1975   1.081       .  S
C1966      C1971   1.486       .  S
C1966      C1967   1.403       .  A
C1967      C1968   1.393       .  A
C1967      H1972   1.084       .  S
C1968      C1969   1.405       .  A
C1968      H1973   1.082       .  S
C1969      C1970   1.403       .  A
C1970      H1974   1.085       .  S
C1971      C1976   1.405       .  A
C1971      C1980   1.406       .  A
C1976      C1977   1.400       .  A
C1976      H1981   1.084       .  S
C1977      C1978   1.407       .  A
C1977      H1982   1.082       .  S
C1978      C1979   1.405       .  A
C1979      C1980   1.396       .  A
C1979      H1983   1.084       .  S
C1980      H1984   1.081       .  S
C1985      C1986   1.408       .  A
C1985      C1990   1.400       .  A
C1985      H1995   1.083       .  S
C1986      C1991   1.489       .  S
C1986      C1987   1.404       .  A
C1987      C1988   1.399       .  A
C1987      H1992   1.083       .  S
C1988      C1989   1.408       .  A
C1988      H1993   1.083       .  S
C1989      C1990   1.405       .  A
C1990      H1994   1.084       .  S
C1991      C1996   1.404       .  A
C1991      C2000   1.408       .  A
C1996      C1997   1.398       .  A
C1996      H2001   1.083       .  S
C1997      C1998   1.408       .  A
C1997      H2002   1.083       .  S
C1998      C1999   1.406       .  A
C1999      C2000   1.402       .  A
C1999      H2003   1.083       .  S
C2000      H2004   1.083       .  S
C2005      C2006   1.402       .  A
C2005      C2010   1.387       .  A
C2005      H2015   1.083       .  S
C2006      C2011   1.486       .  S
C2006      C2007   1.410       .  A
C2007      C2008   1.406       .  A
C2007      H2012   1.083       .  S
C2008      C2009   1.403       .  A
C2008      H2013   1.083       .  S
C2009      C2010   1.404       .  A
C2010      H2014   1.084       .  S
C2011      C2016   1.407       .  A
C2011      C2020   1.405       .  A
C2016      C2017   1.403       .  A
C2016      H2021   1.082       .  S
C2017      C2018   1.406       .  A
C2017      H2022   1.083       .  S
C2018      C2019   1.404       .  A
C2019      C2020   1.390       .  A
C2019      H2023   1.083       .  S
C2020      H2024   1.083       .  S
C2025      C2026   1.410   1_556  A
C2025      C2030   1.397       .  A
C2025      H2035   1.083       .  S
C2026      C2031   1.501       .  S
C2026      C2027   1.411       .  A
C2027      C2028   1.404   1_554  A
C2027      H2032   1.081       .  S
C2028      C2029   1.404       .  A
C2028      H2033   1.085       .  S
C2029      C2030   1.401       .  A
C2030      H2034   1.082       .  S
C2031      C2036   1.407       .  A
C2031      C2040   1.413       .  A
C2036      C2037   1.393       .  A
C2036      H2041   1.080   1_554  S
C2037      C2038   1.405       .  A
C2037      H2042   1.085       .  S
C2038      C2039   1.405       .  A
C2039      C2040   1.408       .  A
C2039      H2043   1.082       .  S
C2040      H2044   1.083       .  S
C2045      C2046   1.404       .  A
C2045      C2050   1.392       .  A
C2045      H2055   1.083       .  S
C2046      C2051   1.479       .  S
C2046      C2047   1.405       .  A
C2047      C2048   1.398       .  A
C2047      H2052   1.083       .  S
C2048      C2049   1.405       .  A
C2048      H2053   1.083       .  S
C2049      C2050   1.404       .  A
C2050      H2054   1.083       .  S
C2051      C2056   1.405       .  A
C2051      C2060   1.404       .  A
C2056      C2057   1.396       .  A
C2056      H2061   1.083       .  S
C2057      C2058   1.404       .  A
C2057      H2062   1.083       .  S
C2058      C2059   1.405       .  A
C2059      C2060   1.394       .  A
C2059      H2063   1.083       .  S
C2060      H2064   1.083       .  S
C2065      C2066   1.408   1_554  A
C2065      C2070   1.400       .  A
C2065      H2075   1.081       .  S
C2066      C2071   1.484       .  S
C2066      C2067   1.402       .  A
C2067      C2068   1.396       .  A
C2067      H2072   1.085       .  S
C2068      C2069   1.409   1_556  A
C2068      H2073   1.082   1_545  S
C2069      C2070   1.403       .  A
C2070      H2074   1.084       .  S
C2071      C2076   1.404       .  A
C2071      C2080   1.406       .  A
C2076      C2077   1.396       .  A
C2076      H2081   1.084   1_556  S
C2077      C2078   1.406       .  A
C2077      H2082   1.082       .  S
C2078      C2079   1.406       .  A
C2079      C2080   1.399       .  A
C2079      H2083   1.084       .  S
C2080      H2084   1.082       .  S
C2085      C2086   1.407       .  A
C2085      C2090   1.399       .  A
C2085      H2095   1.082       .  S
C2086      C2091   1.485       .  S
C2086      C2087   1.407       .  A
C2087      C2088   1.393       .  A
C2087      H2092   1.083       .  S
C2088      C2089   1.401       .  A
C2088      H2093   1.083       .  S
C2089      C2090   1.404       .  A
C2090      H2094   1.084       .  S
C2091      C2096   1.407       .  A
C2091      C2100   1.406       .  A
C2096      C2097   1.399       .  A
C2096      H2101   1.082       .  S
C2097      C2098   1.405       .  A
C2097      H2102   1.084       .  S
C2098      C2099   1.402       .  A
C2099      C2100   1.393       .  A
C2099      H2103   1.083       .  S
C2100      H2104   1.083       .  S
C2105      C2106   1.405       .  A
C2105      C2110   1.396       .  A
C2105      H2115   1.082       .  S
C2106      C2111   1.478   1_545  S
C2106      C2107   1.406       .  A
C2107      C2108   1.390       .  A
C2107      H2112   1.083       .  S
C2108      C2109   1.401       .  A
C2108      H2113   1.083       .  S
C2109      C2110   1.404       .  A
C2110      H2114   1.084       .  S
C2111      C2116   1.409       .  A
C2111      C2120   1.402       .  A
C2116      C2117   1.401       .  A
C2116      H2121   1.084       .  S
C2117      C2118   1.401       .  A
C2117      H2122   1.082       .  S
C2118      C2119   1.402       .  A
C2119      C2120   1.385       .  A
C2119      H2123   1.085       .  S
C2120      H2124   1.082       .  S
C2125      C2126   1.404       .  A
C2125      C2130   1.398       .  A
C2125      H2135   1.083       .  S
C2126      C2131   1.483       .  S
C2126      C2127   1.405       .  A
C2127      C2128   1.400       .  A
C2127      H2132   1.083       .  S
C2128      C2129   1.406       .  A
C2128      H2133   1.082       .  S
C2129      C2130   1.407       .  A
C2130      H2134   1.083       .  S
C2131      C2136   1.403       .  A
C2131      C2140   1.406       .  A
C2136      C2137   1.396       .  A
C2136      H2141   1.083       .  S
C2137      C2138   1.407       .  A
C2137      H2142   1.084       .  S
C2138      C2139   1.405       .  A
C2139      C2140   1.401       .  A
C2139      H2143   1.082       .  S
C2140      H2144   1.083       .  S
C2145      C2146   1.408       .  A
C2145      C2150   1.403       .  A
C2145      H2155   1.083       .  S
C2146      C2151   1.501       .  S
C2146      C2147   1.410       .  A
C2147      C2148   1.401       .  A
C2147      H2152   1.081       .  S
C2148      C2149   1.405       .  A
C2148      H2153   1.084       .  S
C2149      C2150   1.408       .  A
C2150      H2154   1.082       .  S
C2151      C2156   1.409       .  A
C2151      C2160   1.411       .  A
C2156      C2157   1.401       .  A
C2156      H2161   1.083       .  S
C2157      C2158   1.404       .  A
C2157      H2162   1.083       .  S
C2158      C2159   1.404       .  A
C2159      C2160   1.404       .  A
C2159      H2163   1.084       .  S
C2160      H2164   1.082       .  S
C2165      C2166   1.405       .  A
C2165      C2170   1.398       .  A
C2165      H2175   1.083       .  S
C2166      C2171   1.484       .  S
C2166      C2167   1.405       .  A
C2167      C2168   1.397       .  A
C2167      H2172   1.083       .  S
C2168      C2169   1.405       .  A
C2168      H2173   1.083       .  S
C2169      C2170   1.406       .  A
C2170      H2174   1.083       .  S
C2171      C2176   1.405       .  A
C2171      C2180   1.405       .  A
C2176      C2177   1.400       .  A
C2176      H2181   1.083       .  S
C2177      C2178   1.407       .  A
C2177      H2182   1.083       .  S
C2178      C2179   1.404       .  A
C2179      C2180   1.395       .  A
C2179      H2183   1.083       .  S
C2180      H2184   1.083       .  S
C2185      C2186   1.405       .  A
C2185      C2190   1.398       .  A
C2185      H2195   1.082       .  S
C2186      C2191   1.488       .  S
C2186      C2187   1.406       .  A
C2187      C2188   1.401       .  A
C2187      H2192   1.084       .  S
C2188      C2189   1.407       .  A
C2188      H2193   1.082       .  S
C2189      C2190   1.407       .  A
C2190      H2194   1.084       .  S
C2191      C2196   1.403       .  A
C2191      C2200   1.409       .  A
C2196      C2197   1.395   1_545  A
C2196      H2201   1.084       .  S
C2197      C2198   1.407       .  A
C2197      H2202   1.082       .  S
C2198      C2199   1.405   1_565  A
C2199      C2200   1.403       .  A
C2199      H2203   1.085       .  S
C2200      H2204   1.081       .  S
C2205      C2206   1.408       .  A
C2205      C2210   1.405       .  A
C2205      H2215   1.083       .  S
C2206      C2211   1.477       .  S
C2206      C2207   1.399       .  A
C2207      C2208   1.386       .  A
C2207      H2212   1.083       .  S
C2208      C2209   1.406       .  A
C2208      H2213   1.084       .  S
C2209      C2210   1.405       .  A
C2210      H2214   1.083       .  S
C2211      C2216   1.404       .  A
C2211      C2220   1.404       .  A
C2216      C2217   1.401       .  A
C2216      H2221   1.083       .  S
C2217      C2218   1.405       .  A
C2217      H2222   1.083       .  S
C2218      C2219   1.402       .  A
C2219      C2220   1.391       .  A
C2219      H2223   1.084       .  S
C2220      H2224   1.083       .  S
C2225      C2226   1.407       .  A
C2225      C2230   1.396       .  A
C2225      H2235   1.081       .  S
C2226      C2231   1.503       .  S
C2226      C2227   1.413       .  A
C2227      C2228   1.408       .  A
C2227      H2232   1.083       .  S
C2228      C2229   1.405       .  A
C2228      H2233   1.082       .  S
C2229      C2230   1.406       .  A
C2230      H2234   1.084       .  S
C2231      C2236   1.411       .  A
C2231      C2240   1.412       .  A
C2236      C2237   1.400       .  A
C2236      H2241   1.082       .  S
C2237      C2238   1.401       .  A
C2237      H2242   1.083       .  S
C2238      C2239   1.403   1_565  A
C2239      C2240   1.404   1_545  A
C2239      H2243   1.084       .  S
C2240      H2244   1.081   1_565  S
C2245      C2246   1.407       .  A
C2245      C2250   1.401       .  A
C2245      H2255   1.083       .  S
C2246      C2251   1.493       .  S
C2246      C2247   1.407       .  A
C2247      C2248   1.401       .  A
C2247      H2252   1.082       .  S
C2248      C2249   1.407       .  A
C2248      H2253   1.083       .  S
C2249      C2250   1.407       .  A
C2250      H2254   1.083       .  S
C2251      C2256   1.405       .  A
C2251      C2260   1.409       .  A
C2256      C2257   1.399       .  A
C2256      H2261   1.083       .  S
C2257      C2258   1.408       .  A
C2257      H2262   1.083       .  S
C2258      C2259   1.404       .  A
C2259      C2260   1.403       .  A
C2259      H2263   1.083       .  S
C2260      H2264   1.082       .  S
C2265      C2266   1.409       .  A
C2265      C2270   1.401       .  A
C2265      H2275   1.082       .  S
C2266      C2271   1.492       .  S
C2266      C2267   1.405       .  A
C2267      C2268   1.399       .  A
C2267      H2272   1.083       .  S
C2268      C2269   1.408       .  A
C2268      H2273   1.083       .  S
C2269      C2270   1.404       .  A
C2270      H2274   1.083       .  S
C2271      C2276   1.405       .  A
C2271      C2280   1.409       .  A
C2276      C2277   1.398       .  A
C2276      H2281   1.083       .  S
C2277      C2278   1.408       .  A
C2277      H2282   1.083       .  S
C2278      C2279   1.405       .  A
C2279      C2280   1.401       .  A
C2279      H2283   1.083       .  S
C2280      H2284   1.083       .  S
C2285      C2286   1.399       .  A
C2285      C2290   1.387       .  A
C2285      H2295   1.083       .  S
C2286      C2291   1.471       .  S
C2286      C2287   1.407       .  A
C2287      C2288   1.398       .  A
C2287      H2292   1.083       .  S
C2288      C2289   1.403       .  A
C2288      H2293   1.082       .  S
C2289      C2290   1.407       .  A
C2290      H2294   1.084       .  S
C2291      C2296   1.400       .  A
C2291      C2300   1.408       .  A
C2296      C2297   1.387       .  A
C2296      H2301   1.082       .  S
C2297      C2298   1.403       .  A
C2297      H2302   1.084       .  S
C2298      C2299   1.401       .  A
C2299      C2300   1.398       .  A
C2299      H2303   1.083       .  S
C2300      H2304   1.084       .  S
C2305      C2306   1.401       .  A
C2305      C2310   1.386       .  A
C2305      H2315   1.082   1_565  S
C2306      C2311   1.480   1_564  S
C2306      C2307   1.410   1_554  A
C2307      C2308   1.403       .  A
C2307      H2312   1.084       .  S
C2308      C2309   1.403   1_556  A
C2308      H2313   1.082       .  S
C2309      C2310   1.405       .  A
C2310      H2314   1.084       .  S
C2311      C2316   1.406   1_556  A
C2311      C2320   1.404       .  A
C2316      C2317   1.393   1_554  A
C2316      H2321   1.084       .  S
C2317      C2318   1.402       .  A
C2317      H2322   1.082       .  S
C2318      C2319   1.406       .  A
C2319      C2320   1.397       .  A
C2319      H2323   1.084       .  S
C2320      H2324   1.082       .  S
C2325      C2326   1.410       .  A
C2325      C2330   1.408       .  A
C2325      H2335   1.083       .  S
C2326      C2331   1.496       .  S
C2326      C2327   1.407       .  A
C2327      C2328   1.394       .  A
C2327      H2332   1.083       .  S
C2328      C2329   1.404       .  A
C2328      H2333   1.083       .  S
C2329      C2330   1.407       .  A
C2330      H2334   1.083       .  S
C2331      C2336   1.410       .  A
C2331      C2340   1.406       .  A
C2336      C2337   1.409       .  A
C2336      H2341   1.082       .  S
C2337      C2338   1.408       .  A
C2337      H2342   1.083       .  S
C2338      C2339   1.404       .  A
C2339      C2340   1.393       .  A
C2339      H2343   1.083       .  S
C2340      H2344   1.083       .  S
C2345      C2346   1.407       .  A
C2345      C2350   1.397       .  A
C2345      H2355   1.084       .  S
C2346      C2351   1.494       .  S
C2346      C2347   1.409       .  A
C2347      C2348   1.403       .  A
C2347      H2352   1.081       .  S
C2348      C2349   1.404       .  A
C2348      H2353   1.084       .  S
C2349      C2350   1.404       .  A
C2350      H2354   1.083       .  S
C2351      C2356   1.407       .  A
C2351      C2360   1.409   1_554  A
C2356      C2357   1.402   1_565  A
C2356      H2361   1.083       .  S
C2357      C2358   1.407   1_554  A
C2357      H2362   1.082       .  S
C2358      C2359   1.403   1_545  A
C2359      C2360   1.398       .  A
C2359      H2363   1.084       .  S
C2360      H2364   1.081       .  S
C2365      C2366   1.407       .  A
C2365      C2370   1.401       .  A
C2365      H2375   1.082   1_556  S
C2366      C2371   1.490       .  S
C2366      C2367   1.405       .  A
C2367      C2368   1.399       .  A
C2367      H2372   1.084       .  S
C2368      C2369   1.408       .  A
C2368      H2373   1.082       .  S
C2369      C2370   1.406       .  A
C2370      H2374   1.083       .  S
C2371      C2376   1.408   1_556  A
C2371      C2380   1.405       .  A
C2376      C2377   1.402       .  A
C2376      H2381   1.083       .  S
C2377      C2378   1.404       .  A
C2377      H2382   1.083       .  S
C2378      C2379   1.407       .  A
C2379      C2380   1.398   1_554  A
C2379      H2383   1.083   1_554  S
C2380      H2384   1.083       .  S
C2385      C2386   1.407       .  A
C2385      C2390   1.397       .  A
C2385      H2395   1.083       .  S
C2386      C2391   1.486       .  S
C2386      C2387   1.405       .  A
C2387      C2388   1.399       .  A
C2387      H2392   1.083       .  S
C2388      C2389   1.406       .  A
C2388      H2393   1.083       .  S
C2389      C2390   1.405       .  A
C2390      H2394   1.084       .  S
C2391      C2396   1.404       .  A
C2391      C2400   1.407       .  A
C2396      C2397   1.396       .  A
C2396      H2401   1.083       .  S
C2397      C2398   1.407       .  A
C2397      H2402   1.083       .  S
C2398      C2399   1.405       .  A
C2399      C2400   1.400       .  A
C2399      H2403   1.083       .  S
C2400      H2404   1.083       .  S
C2405      C2406   1.405       .  A
C2405      C2410   1.392       .  A
C2405      H2415   1.083       .  S
C2406      C2411   1.484       .  S
C2406      C2407   1.407       .  A
C2407      C2408   1.401       .  A
C2407      H2412   1.082       .  S
C2408      C2409   1.405       .  A
C2408      H2413   1.084       .  S
C2409      C2410   1.403       .  A
C2410      H2414   1.083       .  S
C2411      C2416   1.407       .  A
C2411      C2420   1.405       .  A
C2416      C2417   1.394       .  A
C2416      H2421   1.083       .  S
C2417      C2418   1.402       .  A
C2417      H2422   1.083       .  S
C2418      C2419   1.406       .  A
C2419      C2420   1.399       .  A
C2419      H2423   1.083       .  S
C2420      H2424   1.083       .  S
C2425      C2426   1.406       .  A
C2425      C2430   1.393       .  A
C2425      H2435   1.084       .  S
C2426      C2431   1.481   1_545  S
C2426      C2427   1.403       .  A
C2427      C2428   1.399       .  A
C2427      H2432   1.082       .  S
C2428      C2429   1.408       .  A
C2428      H2433   1.084       .  S
C2429      C2430   1.402       .  A
C2430      H2434   1.082       .  S
C2431      C2436   1.399       .  A
C2431      C2440   1.409       .  A
C2436      C2437   1.385       .  A
C2436      H2441   1.082   1_565  S
C2437      C2438   1.408       .  A
C2437      H2442   1.084       .  S
C2438      C2439   1.405       .  A
C2439      C2440   1.406       .  A
C2439      H2443   1.082       .  S
C2440      H2444   1.084       .  S
C2445      C2446   1.411       .  A
C2445      C2450   1.405       .  A
C2445      H2455   1.083       .  S
C2446      C2451   1.504       .  S
C2446      C2447   1.409       .  A
C2447      C2448   1.399       .  A
C2447      H2452   1.081       .  S
C2448      C2449   1.406       .  A
C2448      H2453   1.084       .  S
C2449      C2450   1.406       .  A
C2450      H2454   1.082       .  S
C2451      C2456   1.412       .  A
C2451      C2460   1.410       .  A
C2456      C2457   1.405       .  A
C2456      H2461   1.081       .  S
C2457      C2458   1.405       .  A
C2457      H2462   1.084       .  S
C2458      C2459   1.404       .  A
C2459      C2460   1.400       .  A
C2459      H2463   1.082       .  S
C2460      H2464   1.083       .  S
C2465      C2466   1.406       .  A
C2465      C2470   1.399       .  A
C2465      H2475   1.083       .  S
C2466      C2471   1.486       .  S
C2466      C2467   1.406       .  A
C2467      C2468   1.395       .  A
C2467      H2472   1.083       .  S
C2468      C2469   1.405       .  A
C2468      H2473   1.083       .  S
C2469      C2470   1.405       .  A
C2470      H2474   1.083       .  S
C2471      C2476   1.407       .  A
C2471      C2480   1.405       .  A
C2476      C2477   1.399       .  A
C2476      H2481   1.082       .  S
C2477      C2478   1.404       .  A
C2477      H2482   1.083       .  S
C2478      C2479   1.406       .  A
C2479      C2480   1.396       .  A
C2479      H2483   1.083       .  S
C2480      H2484   1.083       .  S
C2485      C2486   1.407       .  A
C2485      C2490   1.401       .  A
C2485      H2495   1.081       .  S
C2486      C2491   1.490       .  S
C2486      C2487   1.405       .  A
C2487      C2488   1.400       .  A
C2487      H2492   1.085       .  S
C2488      C2489   1.408       .  A
C2488      H2493   1.081       .  S
C2489      C2490   1.407       .  A
C2490      H2494   1.084       .  S
C2491      C2496   1.403       .  A
C2491      C2500   1.409       .  A
C2496      C2497   1.397   1_545  A
C2496      H2501   1.085       .  S
C2497      C2498   1.408   1_565  A
C2497      H2502   1.082       .  S
C2498      C2499   1.405       .  A
C2499      C2500   1.404       .  A
C2499      H2503   1.085       .  S
C2500      H2504   1.081       .  S
C2505      C2506   1.408       .  A
C2505      C2510   1.401       .  A
C2505      H2515   1.083       .  S
C2506      C2511   1.479       .  S
C2506      C2507   1.402       .  A
C2507      C2508   1.384       .  A
C2507      H2512   1.083       .  S
C2508      C2509   1.403       .  A
C2508      H2513   1.084       .  S
C2509      C2510   1.403       .  A
C2510      H2514   1.083       .  S
C2511      C2516   1.404       .  A
C2511      C2520   1.406       .  A
C2516      C2517   1.384       .  A
C2516      H2521   1.083       .  S
C2517      C2518   1.402       .  A
C2517      H2522   1.083       .  S
C2518      C2519   1.405       .  A
C2519      C2520   1.400       .  A
C2519      H2523   1.083       .  S
C2520      H2524   1.082       .  S
C2525      C2526   1.402       .  A
C2525      C2530   1.385       .  A
C2525      H2535   1.082   1_565  S
C2526      C2531   1.485   1_565  S
C2526      C2527   1.412       .  A
C2527      C2528   1.404       .  A
C2527      H2532   1.083       .  S
C2528      C2529   1.402       .  A
C2528      H2533   1.083       .  S
C2529      C2530   1.404       .  A
C2530      H2534   1.084       .  S
C2531      C2536   1.408   1_455  A
C2531      C2540   1.405       .  A
C2536      C2537   1.393       .  A
C2536      H2541   1.083       .  S
C2537      C2538   1.401       .  A
C2537      H2542   1.083       .  S
C2538      C2539   1.406   1_655  A
C2539      C2540   1.397       .  A
C2539      H2543   1.084       .  S
C2540      H2544   1.082       .  S
C2545      C2546   1.408       .  A
C2545      C2550   1.400       .  A
C2545      H2555   1.083       .  S
C2546      C2551   1.496       .  S
C2546      C2547   1.408       .  A
C2547      C2548   1.404       .  A
C2547      H2552   1.083       .  S
C2548      C2549   1.406       .  A
C2548      H2553   1.083       .  S
C2549      C2550   1.405       .  A
C2550      H2554   1.083       .  S
C2551      C2556   1.406       .  A
C2551      C2560   1.408       .  A
C2556      C2557   1.399       .  A
C2556      H2561   1.082       .  S
C2557      C2558   1.407       .  A
C2557      H2562   1.083       .  S
C2558      C2559   1.407       .  A
C2559      C2560   1.405       .  A
C2559      H2563   1.082       .  S
C2560      H2564   1.083       .  S
C2565      C2566   1.413       .  A
C2565      C2570   1.407       .  A
C2565      H2575   1.083       .  S
C2566      C2571   1.507       .  S
C2566      C2567   1.409       .  A
C2567      C2568   1.398       .  A
C2567      H2572   1.080       .  S
C2568      C2569   1.405       .  A
C2568      H2573   1.084       .  S
C2569      C2570   1.406       .  A
C2570      H2574   1.082       .  S
C2571      C2576   1.412       .  A
C2571      C2580   1.411       .  A
C2576      C2577   1.405       .  A
C2576      H2581   1.080       .  S
C2577      C2578   1.405       .  A
C2577      H2582   1.084       .  S
C2578      C2579   1.404       .  A
C2579      C2580   1.401       .  A
C2579      H2583   1.082       .  S
C2580      H2584   1.083       .  S
C2585      C2586   1.405       .  A
C2585      C2590   1.392       .  A
C2585      H2595   1.083       .  S
C2586      C2591   1.482       .  S
C2586      C2587   1.406       .  A
C2587      C2588   1.398       .  A
C2587      H2592   1.083       .  S
C2588      C2589   1.405       .  A
C2588      H2593   1.083       .  S
C2589      C2590   1.404       .  A
C2590      H2594   1.083       .  S
C2591      C2596   1.405       .  A
C2591      C2600   1.405       .  A
C2596      C2597   1.396       .  A
C2596      H2601   1.083       .  S
C2597      C2598   1.405       .  A
C2597      H2602   1.083       .  S
C2598      C2599   1.405       .  A
C2599      C2600   1.396       .  A
C2599      H2603   1.083       .  S
C2600      H2604   1.083       .  S
C2605      C2606   1.406       .  A
C2605      C2610   1.396       .  A
C2605      H2615   1.083       .  S
C2606      C2611   1.489       .  S
C2606      C2607   1.408       .  A
C2607      C2608   1.400       .  A
C2607      H2612   1.081       .  S
C2608      C2609   1.405       .  A
C2608      H2613   1.084       .  S
C2609      C2610   1.405       .  A
C2610      H2614   1.082   1_545  S
C2611      C2616   1.406       .  A
C2611      C2620   1.408       .  A
C2616      C2617   1.395       .  A
C2616      H2621   1.082       .  S
C2617      C2618   1.405       .  A
C2617      H2622   1.084       .  S
C2618      C2619   1.406       .  A
C2619      C2620   1.401       .  A
C2619      H2623   1.082       .  S
C2620      H2624   1.083       .  S
