geometry optimzed in LAMMPS
_audit_creation_date              2020-12-01 
_audit_creation_method            'lammps2cif' 
_symmetry_space_group_name_H-M    'P1' 
_symmetry_Int_Tables_number       1 
_symmetry_cell_setting            triclinic 
loop_ 
_symmetry_equiv_pos_as_xyz 
  x,y,z 
_cell_length_a                    93.43720878 
_cell_length_b                    37.60467682757067 
_cell_length_c                    45.81969645179674 
_cell_angle_alpha                 90.04639135056931 
_cell_angle_beta                  89.89395539041325 
_cell_angle_gamma                 90.04734325741813 
loop_ 
_atom_site_label 
_atom_site_type_symbol 
_atom_site_fract_x 
_atom_site_fract_y 
_atom_site_fract_z 
_atom_site_charge 
Fe1        Fe  0.79854559  0.76684329  0.72466146     1.65800
Fe2        Fe  0.79477706  0.85223899  0.70820418     1.73200
Fe3        Fe  0.76826813  0.79559068  0.69272424     1.54400
O4          O  0.77405918  0.74488105  0.67770241    -0.81500
O5          O  0.77776891  0.86807660  0.73213128    -0.79900
O6          O  0.79737369  0.73939592  0.68630612    -0.84100
O7          O  0.78050468  0.73987132  0.74141386    -0.78900
O8          O  0.77366320  0.81708757  0.65268714    -0.80700
O9          O  0.80577918  0.84613961  0.74760705    -0.83400
C10         C  0.76744585  0.74866989  0.74582701     0.97300
C11         C  0.78590103  0.72825490  0.67476508     1.04800
O12         O  0.78725578  0.80468806  0.70809787    -1.12400
O13         O  0.81212021  0.83705308  0.68472423    -0.74800
O14         O  0.81818385  0.78992648  0.71105058    -0.78300
O15         O  0.76179176  0.77437439  0.73207591    -0.79000
C16         C  0.82148447  0.81585743  0.69420742     0.96200
O17         O  0.79975698  0.79252967  0.76379453    -0.77000
O18         O  0.78451510  0.86574756  0.66906799    -0.82200
C19         C  0.76547458  0.87027412  0.72105741     0.98900
C20         C  0.77760762  0.84918505  0.64923454     1.04800
O21         O  0.76028197  0.84571842  0.70508267    -0.77800
C22         C  0.80437118  0.82370513  0.76818839     1.03100
Fe23       Fe  0.94429738  0.95426569  0.72549046     1.65800
Fe24       Fe  0.95050141  0.87207342  0.69737045     1.73200
Fe25       Fe  0.97539576  0.93637559  0.68876978     1.54400
O26         O  0.96620149  0.97869006  0.66703261    -0.81500
O27         O  0.97059814  0.85178140  0.70126169    -0.79900
O28         O  0.94833775  0.99539450  0.69671942    -0.84100
O29         O  0.96075993  0.97124749  0.75223158    -0.78900
O30         O  0.97383462  0.90494769  0.65117752    -0.80700
O31         O  0.94781502  0.86457864  0.74147157    -0.83400
C32         C  0.97382268  0.97841563  0.74755133     0.97300
C33         C  0.95670371  0.00083443  0.67524491     1.04800
O34         O  0.95665268  0.92118730  0.70374528    -1.12400
O35         O  0.92933693  0.88421231  0.69270914    -0.74800
O36         O  0.92591094  0.94142497  0.70221618    -0.78300
O37         O  0.98008424  0.96914545  0.72410806    -0.79000
C38         C  0.92130547  0.91117593  0.69422307     0.96200
O39         O  0.93936316  0.91688458  0.75693923    -0.77000
O40         O  0.95321783  0.87550206  0.65272532    -0.82200
C41         C  0.98291419  0.86270491  0.70820706     0.98900
C42         C  0.96483968  0.88346853  0.63986046     1.04800
O43         O  0.98615151  0.89541930  0.70972428    -0.77800
C44         C  0.94261868  0.88448893  0.76118732     1.03100
Fe45       Fe  0.80021471  0.96568159  0.01955935     1.65800
Fe46       Fe  0.79614487  0.87823829  0.03105312     1.73200
Fe47       Fe  0.76914122  0.93416996  0.04653875     1.54400
O48         O  0.77451189  0.98258249  0.06587918    -0.81500
O49         O  0.77967986  0.86208715  0.00531792    -0.79900
O50         O  0.79784823  0.99106132  0.05883544    -0.84100
O51         O  0.78282698  0.99400926  0.00191488    -0.78900
O52         O  0.77311600  0.90839178  0.08536542    -0.80700
O53         O  0.80769156  0.88736580  0.99284879    -0.83400
C54         C  0.76975781  0.98630847  0.99673892     0.97300
C55         C  0.78601721  0.99987269  0.07048590     1.04800
O56         O  0.78852328  0.92613018  0.03274596    -1.12400
O57         O  0.81333328  0.89186551  0.05628911    -0.74800
O58         O  0.81936157  0.94216053  0.03428285    -0.78300
O59         O  0.76369590  0.95981622  0.00858498    -0.79000
C60         C  0.82271119  0.91462900  0.04907668     0.96200
O61         O  0.80263326  0.94264132  0.97956438    -0.77000
O62         O  0.78506180  0.86159026  0.06831763    -0.82200
C63         C  0.76650111  0.86368451  0.01140789     0.98900
C64         C  0.77728775  0.87639502  0.08771433     1.04800
O65         O  0.76132615  0.88690827  0.02869962    -0.77800
C66         C  0.80650017  0.91130451  0.97339149     1.03100
Fe67       Fe  0.94517622  0.77221567  0.01956803     1.65800
Fe68       Fe  0.95168360  0.85821558  0.03159899     1.73200
Fe69       Fe  0.97686044  0.79728495  0.04753112     1.54400
O70         O  0.96962866  0.74996126  0.06671566    -0.81500
O71         O  0.96882549  0.87106898  0.00631702    -0.79900
O72         O  0.94614530  0.74748568  0.05907012    -0.84100
O73         O  0.96167990  0.74033573  0.00285146    -0.78900
O74         O  0.97340897  0.82367139  0.08629026    -0.80700
O75         O  0.94016274  0.85114343  0.99297943    -0.83400
C76         C  0.97489861  0.74573000  0.99747934     0.97300
C77         C  0.95739278  0.73562786  0.07095087     1.04800
O78         O  0.95790598  0.80921252  0.03327383    -1.12400
O79         O  0.93387802  0.84777051  0.05637766    -0.74800
O80         O  0.92666018  0.79913753  0.03323220    -0.78300
O81         O  0.98179203  0.77075211  0.00957098    -0.79000
C82         C  0.92403387  0.82650580  0.04884135     0.96200
O83         O  0.94412527  0.79536259  0.97956096    -0.77000
O84         O  0.96292262  0.87254365  0.06931585    -0.82200
C85         C  0.98189177  0.86714317  0.01262556     0.98900
C86         C  0.97011496  0.85627211  0.08881372     1.04800
O87         O  0.98631480  0.84311105  0.03001462    -0.77800
C88         C  0.94076519  0.82709219  0.97346656     1.03100
Fe89       Fe  0.04699021  0.51791744  0.76790812     1.65800
Fe90       Fe  0.04427919  0.60405670  0.78563673     1.73200
Fe91       Fe  0.01484504  0.55117014  0.78784229     1.54400
O92         O  0.01173097  0.52662720  0.74798679    -0.81500
O93         O  0.03303175  0.61607481  0.82374580    -0.79900
O94         O  0.03029087  0.49051028  0.74730766    -0.84100
O95         O  0.04260441  0.49150144  0.80590287    -0.78900
O96         O  0.00877967  0.59891565  0.76780994    -0.80700
O97         O  0.06038623  0.58429062  0.81092768    -0.83400
C98         C  0.03000133  0.48387806  0.81456135     0.97300
C99         C  0.01802405  0.49940980  0.73790731     1.04800
O100        O  0.03526016  0.55789011  0.78091859    -1.12400
O101        O  0.05579330  0.59790865  0.74640314    -0.74800
O102        O  0.05055089  0.54361857  0.72971861    -0.78300
O103        O  0.01894260  0.50234107  0.80812529    -0.79000
C104        C  0.05426891  0.57560592  0.72551651     0.96200
O105        O  0.06644846  0.53828099  0.78419468    -0.77000
O106        O  0.02927014  0.62821191  0.76141750    -0.82200
C107        C  0.02243125  0.60273022  0.83748048     0.98900
C108        C  0.01599264  0.62477432  0.75747938     1.04800
O109        O  0.01561381  0.57581515  0.82812000    -0.77800
C110        C  0.06988737  0.56367392  0.80115035     1.03100
Fe111      Fe  0.19070628  0.71720648  0.76328342     1.65800
Fe112      Fe  0.19596630  0.63077864  0.77733582     1.73200
Fe113      Fe  0.22277653  0.68919608  0.78895981     1.54400
O114        O  0.22738156  0.71551828  0.75076147    -0.81500
O115        O  0.20727062  0.61681204  0.81482771    -0.79900
O116        O  0.20746496  0.74672714  0.74428288    -0.84100
O117        O  0.19323710  0.74422792  0.80193837    -0.78900
O118        O  0.23100043  0.64271106  0.77045014    -0.80700
O119        O  0.17896370  0.64466016  0.80288936    -0.83400
C120        C  0.20508076  0.75353230  0.81325091     0.97300
C121        C  0.22065301  0.74090521  0.73882980     1.04800
O122        O  0.20321115  0.67912384  0.77672485    -1.12400
O123        O  0.18411503  0.63731210  0.73901578    -0.74800
O124        O  0.18793138  0.69250528  0.72380261    -0.78300
O125        O  0.21676056  0.73689979  0.80864691    -0.79000
C126        C  0.18394552  0.66077337  0.71899083     0.96200
O127        O  0.17185447  0.69273914  0.77929383    -0.77000
O128        O  0.21235126  0.61342424  0.75203878    -0.82200
C129        C  0.21581979  0.63176905  0.83260220     0.98900
C130        C  0.22565870  0.61689270  0.75613720     1.04800
O131        O  0.22026702  0.66331435  0.82842771    -0.77800
C132        C  0.16910512  0.66562488  0.79513127     1.03100
Fe133      Fe  0.04713491  0.71110715  0.47085028     1.65800
Fe134      Fe  0.04029183  0.62455682  0.46097237     1.73200
Fe135      Fe  0.01621873  0.68474084  0.43898806     1.54400
O136        O  0.00972717  0.71175298  0.47588999    -0.81500
O137        O  0.03054999  0.60955269  0.42159411    -0.79900
O138        O  0.02979589  0.74170962  0.48629067    -0.84100
O139        O  0.04673162  0.73626492  0.43129667    -0.78900
O140        O  0.00639420  0.63789440  0.45357927    -0.80700
O141        O  0.05889007  0.63268170  0.43867900    -0.83400
C142        C  0.03566914  0.74721502  0.41819719     0.97300
C143        C  0.01628445  0.73692235  0.48880588     1.04800
O144        O  0.03466398  0.67368185  0.45667335    -1.12400
O145        O  0.05059484  0.63198715  0.50075001    -0.74800
O146        O  0.04828602  0.68913782  0.51160045    -0.78300
O147        O  0.02349629  0.73242768  0.42126144    -0.79000
C148        C  0.05100473  0.65747409  0.51897936     0.96200
O149        O  0.06592503  0.68426420  0.45759396    -0.77000
O150        O  0.02210068  0.61465807  0.48422118    -0.82200
C151        C  0.02473904  0.62517616  0.39995063     0.98900
C152        C  0.01004095  0.61427198  0.47196488     1.04800
O153        O  0.02165622  0.65813819  0.40106833    -0.77800
C154        C  0.06858951  0.65529459  0.44390632     1.03100
Fe155      Fe  0.19255187  0.52117432  0.47086728     1.65800
Fe156      Fe  0.19534779  0.60689702  0.45220346     1.73200
Fe157      Fe  0.22410397  0.55283989  0.44670219     1.54400
O158        O  0.22837599  0.53015186  0.48656724    -0.81500
O159        O  0.20681388  0.61962374  0.41427576    -0.79900
O160        O  0.20968699  0.49431857  0.49045220    -0.84100
O161        O  0.19595122  0.49374738  0.43278357    -0.78900
O162        O  0.23058770  0.60166090  0.46378642    -0.80700
O163        O  0.17924408  0.58686705  0.42691725    -0.83400
C164        C  0.20817917  0.48610336  0.42225118     0.97300
C165        C  0.22233153  0.50320507  0.49769164     1.04800
O166        O  0.20410339  0.56043939  0.45636454    -1.12400
O167        O  0.18338404  0.60092414  0.49078283    -0.74800
O168        O  0.18944476  0.54806580  0.50908492    -0.78300
O169        O  0.21958857  0.50324072  0.42838385    -0.79000
C170        C  0.18459175  0.57939663  0.51217978     0.96200
O171        O  0.17317673  0.54177956  0.45504362    -0.77000
O172        O  0.21063138  0.63017563  0.47699619    -0.82200
C173        C  0.21641070  0.60464989  0.39868695     0.98900
C174        C  0.22409718  0.62770627  0.47566710     1.04800
O175        O  0.22196553  0.57526916  0.40604312    -0.77800
C176        C  0.16981387  0.56639443  0.43725695     1.03100
Fe177      Fe  0.69301814  0.21128234  0.77000946     1.65800
Fe178      Fe  0.69704525  0.12543011  0.78777094     1.73200
Fe179      Fe  0.72467467  0.18230500  0.79603624     1.54400
O180        O  0.72924475  0.20515575  0.75625727    -0.81500
O181        O  0.70843846  0.11298950  0.82592790    -0.79900
O182        O  0.71001252  0.23877372  0.74999061    -0.84100
O183        O  0.69580971  0.24002647  0.80765170    -0.78900
O184        O  0.73222785  0.13393710  0.77971004    -0.80700
O185        O  0.68020924  0.14240590  0.81267257    -0.83400
C186        C  0.70785211  0.24933192  0.81810075     0.97300
C187        C  0.72294904  0.23087721  0.74389396     1.04800
O188        O  0.70494115  0.17304189  0.78500602    -1.12400
O189        O  0.68527691  0.13051454  0.74898651    -0.74800
O190        O  0.69036009  0.18438640  0.73182229    -0.78300
O191        O  0.71932155  0.23174766  0.81358875    -0.79000
C192        C  0.68611558  0.15269933  0.72800620     0.96200
O193        O  0.67388603  0.18887620  0.78612678    -0.77000
O194        O  0.71300486  0.10556681  0.76280383    -0.82200
C195        C  0.71721805  0.12902806  0.84275544     0.98900
C196        C  0.72638232  0.10845108  0.76581776     1.04800
O197        O  0.72202667  0.15970058  0.83664477    -0.77800
C198        C  0.67067442  0.16309166  0.80304322     1.03100
Fe199      Fe  0.54840921  0.02430613  0.75965408     1.65800
Fe200      Fe  0.54361864  0.10955639  0.77803692     1.73200
Fe201      Fe  0.51557770  0.05288398  0.78051746     1.54400
O202        O  0.51282787  0.02901504  0.74073795    -0.81500
O203        O  0.53077506  0.12193004  0.81404368    -0.79900
O204        O  0.53246425  0.99641244  0.73694674    -0.84100
O205        O  0.54412668  0.99480056  0.79647786    -0.78900
O206        O  0.50881039  0.10032950  0.76097247    -0.80700
O207        O  0.55913070  0.09150054  0.80549952    -0.83400
C208        C  0.53175080  0.98625467  0.80597059     0.97300
C209        C  0.51976576  0.00387313  0.72907802     1.04800
O210        O  0.53577072  0.06213427  0.77323733    -1.12400
O211        O  0.55692739  0.10527592  0.74122288    -0.74800
O212        O  0.55215954  0.05221167  0.72221530    -0.78300
O213        O  0.52043202  0.00409462  0.80027900    -0.79000
C214        C  0.55622183  0.08423591  0.71944890     0.96200
O215        O  0.56692758  0.04689838  0.77869442    -0.77000
O216        O  0.52887230  0.12997223  0.75094810    -0.82200
C217        C  0.52081096  0.10680769  0.82847205     0.98900
C218        C  0.51548571  0.12600868  0.74891069     1.04800
O219        O  0.51585377  0.07678833  0.82096832    -0.77800
C220        C  0.56929500  0.07223711  0.79664755     1.03100
Fe221      Fe  0.69519003  0.01859136  0.47534866     1.65800
Fe222      Fe  0.70192281  0.10460193  0.46181906     1.73200
Fe223      Fe  0.72663727  0.04318804  0.44490203     1.54400
O224        O  0.73235855  0.01930526  0.48369968    -0.81500
O225        O  0.71234313  0.11653418  0.42233740    -0.79900
O226        O  0.71230817  0.98911698  0.49292320    -0.84100
O227        O  0.69633530  0.99106139  0.43676198    -0.78900
O228        O  0.73617727  0.09116793  0.45756081    -0.80700
O229        O  0.68353701  0.09455039  0.43901661    -0.83400
C230        C  0.70764392  0.97980990  0.42448976     0.97300
C231        C  0.72563945  0.99482687  0.49719005     1.04800
O232        O  0.70780124  0.05534453  0.46042599    -1.12400
O233        O  0.69104404  0.09958806  0.50146502    -0.74800
O234        O  0.69332561  0.04317990  0.51505281    -0.78300
O235        O  0.71975703  0.99438007  0.42866739    -0.79000
C236        C  0.69012054  0.07520431  0.52061331     0.96200
O237        O  0.67648016  0.04431091  0.46032966    -0.77000
O238        O  0.71981009  0.11716931  0.48529606    -0.82200
C239        C  0.71894051  0.09940579  0.40236253     0.98900
C240        C  0.73209776  0.11659915  0.47383862     1.04800
O241        O  0.72199607  0.06664417  0.40541399    -0.77800
C242        C  0.67384307  0.07224235  0.44531089     1.03100
Fe243      Fe  0.55028088  0.21283011  0.46424356     1.65800
Fe244      Fe  0.54451507  0.12599022  0.45156488     1.73200
Fe245      Fe  0.51907034  0.18556194  0.43427557     1.54400
O246        O  0.51308223  0.20997740  0.47295149    -0.81500
O247        O  0.53424391  0.11240884  0.41200794    -0.79900
O248        O  0.53290636  0.24130545  0.48222062    -0.84100
O249        O  0.54892389  0.23987846  0.42554537    -0.78900
O250        O  0.51006513  0.13720346  0.44768449    -0.80700
O251        O  0.56286952  0.13716038  0.42885137    -0.83400
C252        C  0.53742944  0.25051803  0.41382235     0.97300
C253        C  0.51962994  0.23469068  0.48649023     1.04800
O254        O  0.53805404  0.17489549  0.44970652    -1.12400
O255        O  0.55507207  0.13249124  0.49164852    -0.74800
O256        O  0.55220288  0.18920543  0.50393331    -0.78300
O257        O  0.52548678  0.23478412  0.41766811    -0.79000
C258        C  0.55540622  0.15753878  0.51040101     0.96200
O259        O  0.56932075  0.18810838  0.44953610    -0.77000
O260        O  0.52678376  0.11198332  0.47496012    -0.82200
C261        C  0.52714902  0.12853500  0.39216885     0.98900
C262        C  0.51442214  0.11208472  0.46395298     1.04800
O263        O  0.52379599  0.16123427  0.39490995    -0.77800
C264        C  0.57239560  0.15982059  0.43526012     1.03100
Fe265      Fe  0.69679657  0.70739627  0.26488543     1.65800
Fe266      Fe  0.70373101  0.62223713  0.28016513     1.73200
Fe267      Fe  0.72789162  0.68481677  0.29755148     1.54400
O268        O  0.73388893  0.70827633  0.25839188    -0.81500
O269        O  0.71362973  0.61130520  0.32013421    -0.79900
O270        O  0.71376150  0.73691031  0.24781856    -0.84100
O271        O  0.69714257  0.73624143  0.30276606    -0.78900
O272        O  0.73783926  0.63719728  0.28557327    -0.80700
O273        O  0.68514970  0.63212242  0.30212659    -0.83400
C274        C  0.70814690  0.74776400  0.31587574     0.97300
C275        C  0.72705257  0.73139941  0.24360253     1.04800
O276        O  0.70933716  0.67166823  0.28131344    -1.12400
O277        O  0.69307144  0.62583718  0.24036440    -0.74800
O278        O  0.69575105  0.68168250  0.22549387    -0.78300
O279        O  0.72041258  0.73340872  0.31320391    -0.79000
C280        C  0.69234641  0.64962813  0.22075850     0.96200
O281        O  0.67822396  0.68137073  0.27934494    -0.77000
O282        O  0.72189176  0.61046175  0.25735338    -0.82200
C283        C  0.71959555  0.62885179  0.34059608     0.98900
C284        C  0.73408460  0.61167293  0.26908518     1.04800
O285        O  0.72294834  0.66146063  0.33723970    -0.77800
C286        C  0.67547186  0.65381445  0.29468110     1.03100
Fe287      Fe  0.55229638  0.52357345  0.26225979     1.65800
Fe288      Fe  0.54661420  0.60958929  0.27641729     1.73200
Fe289      Fe  0.51991717  0.55076588  0.28605056     1.54400
O290        O  0.51623985  0.52570846  0.24680146    -0.81500
O291        O  0.53416212  0.62334471  0.31282154    -0.79900
O292        O  0.53599115  0.49369309  0.24233790    -0.84100
O293        O  0.54946439  0.49629543  0.30059776    -0.78900
O294        O  0.51199387  0.59780608  0.26805746    -0.80700
O295        O  0.56298155  0.59552876  0.30346316    -0.83400
C296        C  0.53745064  0.48638053  0.31082321     0.97300
C297        C  0.52309089  0.50023023  0.23515906     1.04800
O298        O  0.53958078  0.56120843  0.27537057    -1.12400
O299        O  0.55931301  0.60364561  0.23893007    -0.74800
O300        O  0.55505141  0.54891301  0.22326408    -0.78300
O301        O  0.52577730  0.50266672  0.30535161    -0.79000
C302        C  0.55860321  0.58084111  0.21836082     0.96200
O303        O  0.57068159  0.54850694  0.27916996    -0.77000
O304        O  0.53090924  0.62586621  0.24929612    -0.82200
C305        C  0.52539895  0.60798152  0.33004665     0.98900
C306        C  0.51758464  0.62261884  0.25291105     1.04800
O307        O  0.52168488  0.57582658  0.32597778    -0.77800
C308        C  0.57304249  0.57510226  0.29584900     1.03100
Fe309      Fe  0.69131389  0.51960852  0.97100812     1.65800
Fe310      Fe  0.69504791  0.60617079  0.95655869     1.73200
Fe311      Fe  0.72291709  0.55086938  0.94601480     1.54400
O312        O  0.72773218  0.52793703  0.98594987    -0.81500
O313        O  0.70661698  0.62049107  0.91891037    -0.79900
O314        O  0.70863070  0.49309043  0.99085914    -0.84100
O315        O  0.69463374  0.49296444  0.93256070    -0.78900
O316        O  0.73000888  0.60072632  0.96069409    -0.80700
O317        O  0.67829092  0.59061710  0.93084845    -0.83400
C318        C  0.70677640  0.48420034  0.92239989     0.97300
C319        C  0.72138971  0.50174477  0.99795588     1.04800
O320        O  0.70307052  0.55881398  0.95751207    -1.12400
O321        O  0.68294020  0.59889205  0.99462325    -0.74800
O322        O  0.68773343  0.54431850  0.01005625    -0.78300
O323        O  0.71827465  0.50081788  0.92864359    -0.79000
C324        C  0.68318990  0.57557741  0.01476348     0.96200
O325        O  0.67218164  0.54139571  0.95434256    -0.77000
O326        O  0.71101798  0.62405684  0.98267533    -0.82200
C327        C  0.71499852  0.60487550  0.90093031     0.98900
C328        C  0.72394933  0.62568744  0.97484982     1.04800
O329        O  0.71953114  0.57348889  0.90550576    -0.77800
C330        C  0.66890487  0.56816229  0.93856682     1.03100
Fe331      Fe  0.54753208  0.71921128  0.96634691     1.65800
Fe332      Fe  0.54255166  0.63233549  0.95480686     1.73200
Fe333      Fe  0.51583309  0.68919373  0.94125273     1.54400
O334        O  0.51116608  0.71210684  0.98100449    -0.81500
O335        O  0.53134410  0.61817391  0.91632658    -0.79900
O336        O  0.53025070  0.74719411  0.98489163    -0.84100
O337        O  0.54468359  0.74491780  0.92725956    -0.78900
O338        O  0.50794990  0.63961961  0.95538596    -0.80700
O339        O  0.55991454  0.64443297  0.92968710    -0.83400
C340        C  0.53265098  0.75520520  0.91757534     0.97300
C341        C  0.51749334  0.73877547  0.99226099     1.04800
O342        O  0.53546321  0.68038216  0.95351145    -1.12400
O343        O  0.55408772  0.63989922  0.99349867    -0.74800
O344        O  0.55050019  0.69625434  0.00636221    -0.78300
O345        O  0.52100978  0.73921247  0.92404295    -0.79000
C346        C  0.55379835  0.66452059  0.01263635     0.96200
O347        O  0.56651544  0.69510066  0.95054639    -0.77000
O348        O  0.52598451  0.61861316  0.98108329    -0.82200
C349        C  0.52369195  0.63424445  0.89724826     0.98900
C350        C  0.51354022  0.61553988  0.97112548     1.04800
O351        O  0.51958410  0.66613651  0.90115938    -0.77800
C352        C  0.56951647  0.66690146  0.93612871     1.03100
Fe353      Fe  0.29595581  0.77333379  0.21667028     1.65800
Fe354      Fe  0.29124391  0.85993313  0.20346176     1.73200
Fe355      Fe  0.26365112  0.80302359  0.19425046     1.54400
O356        O  0.26893126  0.75512079  0.17373788    -0.81500
O357        O  0.27574589  0.87662831  0.23076781    -0.79900
O358        O  0.29261891  0.74729991  0.17792779    -0.84100
O359        O  0.27942716  0.74383620  0.23649426    -0.78900
O360        O  0.26544341  0.82900229  0.15475448    -0.80700
O361        O  0.30381483  0.85235529  0.24093713    -0.83400
C362        C  0.26649742  0.75074560  0.24340879     0.97300
C363        C  0.28047723  0.73847804  0.16767675     1.04800
O364        O  0.28357559  0.81201624  0.20429286    -1.12400
O365        O  0.30759472  0.84562919  0.17628003    -0.74800
O366        O  0.31475431  0.79776045  0.20017069    -0.78300
O367        O  0.25987467  0.77699024  0.23274459    -0.79000
C368        C  0.31744119  0.82468089  0.18399928     0.96200
O369        O  0.29897394  0.79745034  0.25599302    -0.77000
O370        O  0.27914384  0.87503576  0.16704489    -0.82200
C371        C  0.26234364  0.87246771  0.23042494     0.98900
C372        C  0.27028852  0.85996651  0.14984877     1.04800
O373        O  0.25613574  0.84923645  0.21462383    -0.77800
C374        C  0.30310204  0.82894476  0.26101422     1.03100
Fe375      Fe  0.44136619  0.96451859  0.21875438     1.65800
Fe376      Fe  0.44484084  0.87930734  0.20079653     1.73200
Fe377      Fe  0.47239049  0.93498240  0.18910893     1.54400
O378        O  0.46736601  0.98598714  0.17386746    -0.81500
O379        O  0.46122110  0.86245654  0.22605953    -0.79900
O380        O  0.44395390  0.99374396  0.18153693    -0.84100
O381        O  0.45911253  0.98982148  0.23830728    -0.78900
O382        O  0.46801083  0.91447281  0.14831184    -0.80700
O383        O  0.43308292  0.88414254  0.23923863    -0.83400
C384        C  0.47212499  0.98106098  0.24311381     0.97300
C385        C  0.45579883  0.00361519  0.17061433     1.04800
O386        O  0.45279702  0.92660728  0.20233821    -1.12400
O387        O  0.42777632  0.89549162  0.17638204    -0.74800
O388        O  0.42191420  0.94320750  0.20221406    -0.78300
O389        O  0.47822546  0.95601344  0.22913717    -0.79000
C390        C  0.41844529  0.91749219  0.18527148     0.96200
O391        O  0.43876391  0.93733645  0.25699421    -0.77000
O392        O  0.45601342  0.86645679  0.16253651    -0.82200
C393        C  0.47367740  0.85906808  0.21603816     0.98900
C394        C  0.46392462  0.88266050  0.14415792     1.04800
O395        O  0.47966757  0.88397199  0.20156790    -0.77800
C396        C  0.43428110  0.90587406  0.26030219     1.03100
Fe397      Fe  0.29817414  0.96494281  0.51440973     1.65800
Fe398      Fe  0.29239580  0.87966953  0.52969523     1.73200
Fe399      Fe  0.26728584  0.94020597  0.54630679     1.54400
O400        O  0.27418768  0.99017235  0.56076918    -0.81500
O401        O  0.27449868  0.86728624  0.50691818    -0.79900
O402        O  0.29765943  0.99159318  0.55301454    -0.84100
O403        O  0.28080765  0.99440230  0.49844109    -0.78900
O404        O  0.27239770  0.91832199  0.58617824    -0.80700
O405        O  0.30272879  0.88422885  0.48919707    -0.83400
C406        C  0.26764306  0.98725401  0.49391926     0.97300
C407        C  0.28643270  0.00468506  0.56407801     1.04800
O408        O  0.28610147  0.92836203  0.53067330    -1.12400
O409        O  0.31092838  0.89087937  0.55161676    -0.74800
O410        O  0.31711752  0.93996913  0.52770882    -0.78300
O411        O  0.26121858  0.96190980  0.50681068    -0.79000
C412        C  0.32032972  0.91296970  0.54320314     0.96200
O413        O  0.29897390  0.93986764  0.47493846    -0.77000
O414        O  0.28225974  0.86825978  0.56975927    -0.82200
C415        C  0.26248538  0.86589204  0.51935631     0.98900
C416        C  0.27554388  0.88567464  0.58952539     1.04800
O417        O  0.25798029  0.89119807  0.53529882    -0.77800
C418        C  0.30205592  0.90783577  0.46929205     1.03100
Fe419      Fe  0.44066889  0.77380188  0.50877067     1.65800
Fe420      Fe  0.44619497  0.85946236  0.52429191     1.73200
Fe421      Fe  0.47312237  0.80072668  0.53290166     1.54400
O422        O  0.46727363  0.75291895  0.55315395    -0.81500
O423        O  0.46171381  0.87614277  0.49652441    -0.79900
O424        O  0.44377313  0.74567623  0.54615836    -0.84100
O425        O  0.45677058  0.74485193  0.48738284    -0.78900
O426        O  0.47139094  0.82630425  0.57261390    -0.80700
O427        O  0.43279367  0.85374995  0.48818354    -0.83400
C428        C  0.46991954  0.75035518  0.48152606     0.97300
C429        C  0.45552762  0.73639039  0.55767909     1.04800
O430        O  0.45341862  0.81115770  0.52224925    -1.12400
O431        O  0.43016675  0.84471918  0.55217050    -0.74800
O432        O  0.42253144  0.79763403  0.52763250    -0.78300
O433        O  0.47703291  0.77452031  0.49427612    -0.79000
C434        C  0.42026554  0.82339196  0.54524638     0.96200
O435        O  0.43726524  0.80003298  0.47047944    -0.77000
O436        O  0.45885225  0.87377088  0.55973241    -0.82200
C437        C  0.47513428  0.87202398  0.49820732     0.98900
C438        C  0.46746170  0.85814269  0.57691776     1.04800
O439        O  0.48091421  0.84738836  0.51333420    -0.77800
C440        C  0.43270657  0.83142802  0.46729955     1.03100
Fe441      Fe  0.79895636  0.27279698  0.22311854     1.65800
Fe442      Fe  0.79372289  0.35838937  0.20723542     1.73200
Fe443      Fe  0.76637282  0.29938522  0.19929314     1.54400
O444        O  0.77259844  0.25207900  0.17817189    -0.81500
O445        O  0.77783079  0.37598178  0.23303306    -0.79900
O446        O  0.79623767  0.24633400  0.18485760    -0.84100
O447        O  0.78301295  0.24225195  0.24298275    -0.78900
O448        O  0.76744565  0.32679055  0.15994225    -0.80700
O449        O  0.80590298  0.35293530  0.24542204    -0.83400
C450        C  0.76989955  0.24698461  0.24915572     0.97300
C451        C  0.78446104  0.23562824  0.17427958     1.04800
O452        O  0.78621805  0.31018379  0.20954125    -1.12400
O453        O  0.81051202  0.34356112  0.18127475    -0.74800
O454        O  0.81747240  0.29706569  0.20683159    -0.78300
O455        O  0.76260944  0.27140600  0.23730034    -0.79000
C456        C  0.82032608  0.32314409  0.19016912     0.96200
O457        O  0.80157711  0.29821789  0.26187690    -0.77000
O458        O  0.78202579  0.37188234  0.17007790    -0.82200
C459        C  0.76456717  0.36982268  0.23475847     0.98900
C460        C  0.77266268  0.35715738  0.15390894     1.04800
O461        O  0.75841101  0.34465155  0.22085966    -0.77800
C462        C  0.80561159  0.32999065  0.26589830     1.03100
Fe463      Fe  0.94328069  0.46037445  0.22384710     1.65800
Fe464      Fe  0.94629500  0.37621901  0.20206724     1.73200
Fe465      Fe  0.97422701  0.43198230  0.19361511     1.54400
O466        O  0.96903831  0.48332628  0.17933842    -0.81500
O467        O  0.96243111  0.35489551  0.22562772    -0.79900
O468        O  0.94563508  0.49102677  0.18739472    -0.84100
O469        O  0.96088458  0.48529299  0.24327279    -0.78900
O470        O  0.97024788  0.41313715  0.15221317    -0.80700
O471        O  0.93475796  0.37947937  0.24127915    -0.83400
C472        C  0.97384502  0.47663643  0.24807840     0.97300
C473        C  0.95742909  0.50080780  0.17609037     1.04800
O474        O  0.95464850  0.42297696  0.20620682    -1.12400
O475        O  0.92954832  0.39559589  0.17847650    -0.74800
O476        O  0.92377287  0.44031429  0.20764322    -0.78300
O477        O  0.97993880  0.45163320  0.23411842    -0.79000
C478        C  0.92033660  0.41669296  0.18886121     0.96200
O479        O  0.94108206  0.43122100  0.26115216    -0.77000
O480        O  0.95721945  0.36547728  0.16306765    -0.82200
C481        C  0.97539743  0.35448685  0.21796779     0.98900
C482        C  0.96558785  0.38232609  0.14597833     1.04800
O483        O  0.98143711  0.38084313  0.20542113    -0.77800
C484        C  0.93648718  0.39966461  0.26332440     1.03100
Fe485      Fe  0.79963011  0.45994105  0.52015741     1.65800
Fe486      Fe  0.79492085  0.37285094  0.53085738     1.73200
Fe487      Fe  0.76749524  0.42979915  0.54245545     1.54400
O488        O  0.77325390  0.47692013  0.56419728    -0.81500
O489        O  0.77895443  0.35629382  0.50463255    -0.79900
O490        O  0.79701803  0.48266990  0.56017577    -0.84100
O491        O  0.78296929  0.49161126  0.50351344    -0.78900
O492        O  0.76932849  0.40200062  0.58110385    -0.80700
O493        O  0.80669198  0.38226640  0.49247359    -0.83400
C494        C  0.77027851  0.48482237  0.49516092     0.97300
C495        C  0.78501720  0.49261087  0.57040948     1.04800
O496        O  0.78729756  0.42072256  0.53160740    -1.12400
O497        O  0.81192662  0.38598337  0.55685262    -0.74800
O498        O  0.81856786  0.43472759  0.53372427    -0.78300
O499        O  0.76370679  0.45753157  0.50441658    -0.79000
C500        C  0.82165456  0.40699724  0.54835563     0.96200
O501        O  0.80212951  0.43816504  0.47977382    -0.77000
O502        O  0.78333130  0.35684389  0.56790586    -0.82200
C503        C  0.76555651  0.36010589  0.50609408     0.98900
C504        C  0.77416788  0.37079395  0.58515394     1.04800
O505        O  0.75961744  0.38412707  0.52158944    -0.77800
C506        C  0.80613342  0.40695171  0.47332487     1.03100
Fe507      Fe  0.94462929  0.26434317  0.51203990     1.65800
Fe508      Fe  0.94710928  0.35065103  0.52795991     1.73200
Fe509      Fe  0.97550162  0.29762360  0.53916785     1.54400
O510        O  0.97070834  0.24872418  0.55895346    -0.81500
O511        O  0.96244674  0.37003580  0.50130663    -0.79900
O512        O  0.94761052  0.23713668  0.55011138    -0.84100
O513        O  0.96225517  0.23807272  0.49290472    -0.78900
O514        O  0.97207642  0.32247032  0.57879536    -0.80700
O515        O  0.93456447  0.34181613  0.49077883    -0.83400
C516        C  0.97530636  0.24643408  0.48816058     0.97300
C517        C  0.95935164  0.23032454  0.56288075     1.04800
O518        O  0.95583655  0.30402686  0.52670441    -1.12400
O519        O  0.93123423  0.33254763  0.55467606    -0.74800
O520        O  0.92518887  0.28534546  0.52844259    -0.78300
O521        O  0.98098307  0.27274121  0.50088983    -0.79000
C522        C  0.92191239  0.31058663  0.54598566     0.96200
O523        O  0.94150583  0.28985213  0.47312197    -0.77000
O524        O  0.95877457  0.36802599  0.56423249    -0.82200
C525        C  0.97589309  0.36904514  0.50432637     0.98900
C526        C  0.96734187  0.35377290  0.58231505     1.04800
O527        O  0.98216753  0.34588875  0.52023173    -0.77800
C528        C  0.93583331  0.32016475  0.46957649     1.03100
Fe529      Fe  0.05397294  0.02024643  0.26413201     1.65800
Fe530      Fe  0.04930632  0.10628933  0.28045088     1.73200
Fe531      Fe  0.02261587  0.04778480  0.29289268     1.54400
O532        O  0.01738229  0.02443854  0.25364125    -0.81500
O533        O  0.03839203  0.11901798  0.31916135    -0.79900
O534        O  0.03683749  0.99216072  0.24595471    -0.84100
O535        O  0.05207812  0.99145273  0.30212958    -0.78900
O536        O  0.01422322  0.09560365  0.27735178    -0.80700
O537        O  0.06694992  0.09174811  0.30396092    -0.83400
C538        C  0.04023596  0.98132463  0.31306342     0.97300
C539        C  0.02376919  0.99915064  0.24068387     1.04800
O540        O  0.04199990  0.05800586  0.27969740    -1.12400
O541        O  0.06028003  0.10118361  0.24065867    -0.74800
O542        O  0.05573723  0.04649673  0.22518145    -0.78300
O543        O  0.02859578  0.99855973  0.30983839    -0.79000
C544        C  0.05914484  0.07848176  0.22007033     0.96200
O545        O  0.07307350  0.04371179  0.27887572    -0.77000
O546        O  0.03258983  0.12370967  0.25664243    -0.82200
C547        C  0.03029396  0.10277770  0.33726818     0.98900
C548        C  0.01937840  0.12042972  0.26164987     1.04800
O549        O  0.02618552  0.07100543  0.33300976    -0.77800
C550        C  0.07640919  0.07046068  0.29460363     1.03100
Fe551      Fe  0.19915455  0.21625766  0.26238163     1.65800
Fe552      Fe  0.20467673  0.13046828  0.27935114     1.73200
Fe553      Fe  0.23055620  0.19076936  0.29182428     1.54400
O554        O  0.23592831  0.21061465  0.25125558    -0.81500
O555        O  0.21487667  0.12075385  0.31950677    -0.79900
O556        O  0.21642458  0.24340015  0.24339683    -0.84100
O557        O  0.20099666  0.24559606  0.29992726    -0.78900
O558        O  0.23936569  0.14149824  0.28137903    -0.80700
O559        O  0.18631800  0.14371766  0.30123254    -0.83400
C560        C  0.21275969  0.25733115  0.30989878     0.97300
C561        C  0.22933661  0.23491820  0.23745546     1.04800
O562        O  0.21132958  0.17917707  0.27827227    -1.12400
O563        O  0.19445505  0.13367545  0.23886883    -0.74800
O564        O  0.19702082  0.18975288  0.22376739    -0.78300
O565        O  0.22455173  0.24126937  0.30564601    -0.79000
C566        C  0.19425111  0.15734690  0.21900044     0.96200
O567        O  0.18011666  0.19304831  0.27801733    -0.77000
O568        O  0.22225008  0.11400018  0.25689522    -0.82200
C569        C  0.22254338  0.13848542  0.33748542     0.98900
C570        C  0.23467634  0.11488018  0.26741618     1.04800
O571        O  0.22620043  0.17059688  0.33275072    -0.77800
C572        C  0.17685531  0.16579126  0.29322880     1.03100
Fe573      Fe  0.04699461  0.21783572  0.96640046     1.65800
Fe574      Fe  0.04362032  0.13055899  0.95693213     1.73200
Fe575      Fe  0.01564171  0.18337225  0.94361964     1.54400
O576        O  0.01094903  0.20750858  0.98300870    -0.81500
O577        O  0.03198303  0.11331863  0.91995360    -0.79900
O578        O  0.02949832  0.24489652  0.98486322    -0.84100
O579        O  0.04334626  0.24126828  0.92676510    -0.78900
O580        O  0.00901523  0.13326669  0.95932419    -0.80700
O581        O  0.06015199  0.14343902  0.92999326    -0.83400
C582        C  0.03105034  0.24951991  0.91718107     0.97300
C583        C  0.01688365  0.23567030  0.99258152     1.04800
O584        O  0.03556683  0.17748565  0.95488206    -1.12400
O585        O  0.05587798  0.14097918  0.99414391    -0.74800
O586        O  0.05050993  0.19632127  0.00683822    -0.78300
O587        O  0.01973068  0.23292832  0.92482787    -0.79000
C588        C  0.05481847  0.16540633  0.01330663     0.96200
O589        O  0.06611016  0.19525450  0.95011806    -0.77000
O590        O  0.02780917  0.11735106  0.98502674    -0.82200
C591        C  0.02401989  0.12795166  0.90071475     0.98900
C592        C  0.01550895  0.11099010  0.97543167     1.04800
O593        O  0.01947764  0.15960004  0.90394971    -0.77800
C594        C  0.06925030  0.16758943  0.93512433     1.03100
Fe595      Fe  0.19086999  0.02880304  0.96827461     1.65800
Fe596      Fe  0.19711042  0.11351325  0.94878449     1.73200
Fe597      Fe  0.22303162  0.05159497  0.93933484     1.54400
O598        O  0.22761137  0.02777593  0.97893449    -0.81500
O599        O  0.20786045  0.12293261  0.90978327    -0.79900
O600        O  0.20720485  0.99998267  0.98836331    -0.84100
O601        O  0.19255959  0.99771388  0.93159034    -0.78900
O602        O  0.23222926  0.09837079  0.95490133    -0.80700
O603        O  0.17930511  0.09897157  0.92576784    -0.83400
C604        C  0.20406167  0.98707014  0.91959882     0.97300
C605        C  0.22045270  0.00490198  0.99321178     1.04800
O606        O  0.20370814  0.06457233  0.95177389    -1.12400
O607        O  0.18607909  0.11209629  0.98839522    -0.74800
O608        O  0.18901694  0.05753338  0.00604428    -0.78300
O609        O  0.21602890  0.00306593  0.92247721    -0.79000
C610        C  0.18602684  0.09010889  0.00950678     0.96200
O611        O  0.17226642  0.05245298  0.95159333    -0.77000
O612        O  0.21424609  0.13184249  0.97137704    -0.82200
C613        C  0.21630887  0.10634600  0.89272143     0.98900
C614        C  0.22744333  0.12611594  0.96745605     1.04800
O615        O  0.22068643  0.07512533  0.89858054    -0.77800
C616        C  0.16954963  0.07810086  0.93428439     1.03100
Fe617      Fe  0.29950401  0.27591194  0.72058006     1.65800
Fe618      Fe  0.29525764  0.36165820  0.70455651     1.73200
Fe619      Fe  0.26888789  0.30401363  0.68924190     1.54400
O620        O  0.27493297  0.25410411  0.67360034    -0.81500
O621        O  0.27798036  0.37684867  0.72830085    -0.79900
O622        O  0.29827463  0.24821191  0.68241233    -0.84100
O623        O  0.28169571  0.24847960  0.73767585    -0.78900
O624        O  0.27394063  0.32592278  0.64934537    -0.80700
O625        O  0.30609707  0.35597470  0.74426958    -0.83400
C626        C  0.26848982  0.25604409  0.74162286     0.97300
C627        C  0.28684198  0.23817161  0.67000935     1.04800
O628        O  0.28797538  0.31367810  0.70431210    -1.12400
O629        O  0.31314007  0.34765557  0.68142624    -0.74800
O630        O  0.31890491  0.29899589  0.70636014    -0.78300
O631        O  0.26258544  0.28183344  0.72839339    -0.79000
C632        C  0.32231398  0.32514160  0.68989464     0.96200
O633        O  0.30103232  0.30151039  0.75964466    -0.77000
O634        O  0.28480892  0.37473687  0.66533615    -0.82200
C635        C  0.26569718  0.37874881  0.71708777     0.98900
C636        C  0.27749600  0.35826832  0.64600838     1.04800
O637        O  0.26056332  0.35368141  0.70162516    -0.77800
C638        C  0.30515200  0.33295648  0.76459486     1.03100
Fe639      Fe  0.44579068  0.46338625  0.71628684     1.65800
Fe640      Fe  0.45252663  0.37827672  0.70083808     1.73200
Fe641      Fe  0.47684875  0.44084510  0.68321647     1.54400
O642        O  0.46913917  0.48922821  0.66747806    -0.81500
O643        O  0.47068179  0.36659313  0.72343058    -0.79900
O644        O  0.44592545  0.49118212  0.67808392    -0.84100
O645        O  0.46274455  0.49380379  0.73320591    -0.78900
O646        O  0.47229726  0.41640571  0.64363198    -0.80700
O647        O  0.44219946  0.38208127  0.74109677    -0.83400
C648        C  0.47615068  0.48865640  0.73662917     0.97300
C649        C  0.45682573  0.50357627  0.66518032     1.04800
O650        O  0.45827942  0.42765123  0.69959237    -1.12400
O651        O  0.43378509  0.38817069  0.67910753    -0.74800
O652        O  0.42708755  0.43709864  0.70248503    -0.78300
O653        O  0.48285486  0.46513592  0.72201829    -0.79000
C654        C  0.42409625  0.40976048  0.68710047     0.96200
O655        O  0.44527422  0.43790474  0.75553300    -0.77000
O656        O  0.46252974  0.36680941  0.66093114    -0.82200
C657        C  0.48290967  0.36790836  0.71180032     0.98900
C658        C  0.46911584  0.38357498  0.64077793     1.04800
O659        O  0.48682120  0.39356147  0.69561886    -0.77800
C660        C  0.44258160  0.40565184  0.76098409     1.03100
Fe661      Fe  0.29947270  0.47325991  0.01380816     1.65800
Fe662      Fe  0.29664342  0.38626139  0.02627837     1.73200
Fe663      Fe  0.26782181  0.43875524  0.03458952     1.54400
O664        O  0.27142462  0.48872486  0.05331759    -0.81500
O665        O  0.28174271  0.36854628  0.99764258    -0.79900
O666        O  0.29509868  0.49813619  0.05267062    -0.84100
O667        O  0.28226071  0.49986004  0.99385237    -0.78900
O668        O  0.27022340  0.41530702  0.07487489    -0.80700
O669        O  0.30960596  0.39589804  0.98983558    -0.83400
C670        C  0.26989428  0.49021537  0.98508633     0.97300
C671        C  0.28253807  0.50594293  0.06128060     1.04800
O672        O  0.28801110  0.43285640  0.02556506    -1.12400
O673        O  0.31239707  0.40249927  0.05417709    -0.74800
O674        O  0.31858878  0.45170513  0.03095994    -0.78300
O675        O  0.26397476  0.46210173  0.99468053    -0.79000
C676        C  0.32184831  0.42495582  0.04678852     0.96200
O677        O  0.30351590  0.44981343  0.97440632    -0.77000
O678        O  0.28424632  0.36971382  0.06226468    -0.82200
C679        C  0.26874141  0.36483234  0.00429630     0.98900
C680        C  0.27500740  0.38410145  0.07913825     1.04800
O681        O  0.26191119  0.38875622  0.01814601    -0.77800
C682        C  0.30846890  0.41896260  0.96964440     1.03100
Fe683      Fe  0.44265689  0.27423122  0.01479774     1.65800
Fe684      Fe  0.44904547  0.36090930  0.02642740     1.73200
Fe685      Fe  0.47507455  0.30094418  0.03822870     1.54400
O686        O  0.46909156  0.25270156  0.05719173    -0.81500
O687        O  0.46529783  0.37449025  0.99934039    -0.79900
O688        O  0.44540427  0.24788430  0.05349953    -0.84100
O689        O  0.45889591  0.24392327  0.99484117    -0.78900
O690        O  0.47276319  0.32606696  0.07795751    -0.80700
O691        O  0.43671787  0.35415110  0.98879142    -0.83400
C692        C  0.47179160  0.25078028  0.98747487     0.97300
C693        C  0.45735579  0.23706884  0.06328729     1.04800
O694        O  0.45550357  0.31194691  0.02714561    -1.12400
O695        O  0.43181843  0.35018300  0.05267494    -0.74800
O696        O  0.42436788  0.30025684  0.03154755    -0.78300
O697        O  0.47874404  0.27611792  0.99896977    -0.79000
C698        C  0.42193561  0.32827048  0.04663613     0.96200
O699        O  0.44005234  0.29796558  0.97539864    -0.77000
O700        O  0.46133807  0.37487608  0.06318016    -0.82200
C701        C  0.47853612  0.37147259  0.00403069     0.98900
C702        C  0.46932529  0.35849797  0.08136940     1.04800
O703        O  0.48367393  0.34758817  0.02062939    -0.77800
C704        C  0.43700258  0.32988039  0.96942230     1.03100
C705        C  0.36275062  0.41773549  0.04271172    -0.22300
C706        C  0.36502937  0.38716096  0.05953568     0.09600
C707        C  0.35358601  0.37287758  0.07576855     0.10000
C708        C  0.33987200  0.38788586  0.07312590    -0.17300
C709        C  0.33715622  0.41681818  0.05428784    -0.27700
C710        C  0.34902325  0.43287119  0.03985663     0.18400
C711        C  0.37920012  0.36907290  0.05808544     0.12300
C712        C  0.35577093  0.34096729  0.09509693    -0.12000
H713        H  0.33107862  0.37564937  0.08485827     0.12600
C714        C  0.34742493  0.46498875  0.02047508    -0.22900
H715        H  0.37169629  0.42889300  0.03070820     0.08300
C716        C  0.38232968  0.34431969  0.03579680     0.04600
C717        C  0.39606699  0.32916631  0.03413218    -0.20100
C718        C  0.40687528  0.33809539  0.05423699    -0.12400
C719        C  0.40333670  0.36117028  0.07778411     0.13300
C720        C  0.38965008  0.37678213  0.07904164    -0.22800
C721        C  0.37124139  0.33455518  0.01331536    -0.05900
H722        H  0.39857537  0.31170880  0.01600184     0.14800
C723        C  0.41353437  0.36952731  0.10230861    -0.16100
H724        H  0.38709349  0.39508897  0.09658365     0.09200
H725        H  0.34069372  0.45835289  0.00129035     0.07000
H726        H  0.35791435  0.47442273  0.01204502     0.08200
H727        H  0.34255347  0.48718175  0.03302153     0.07300
H728        H  0.36384265  0.34727083  0.11208688     0.02100
H729        H  0.35960058  0.31811015  0.08188059     0.02600
H730        H  0.34570988  0.33291556  0.10622793     0.06100
H731        H  0.37539849  0.31482202  0.99737372     0.05100
H732        H  0.36792461  0.35863497  0.00107295    -0.00700
H733        H  0.36173456  0.32283601  0.02425253     0.00800
H734        H  0.41666907  0.39798985  0.10133304     0.04500
H735        H  0.42326593  0.35275773  0.10201744     0.06400
H736        H  0.40815925  0.36439791  0.12353413     0.07300
C737        C  0.44580535  0.39690273  0.84317365    -0.22300
C738        C  0.43538122  0.37116968  0.84894947     0.09600
C739        C  0.42698872  0.35737239  0.82608582     0.10000
C740        C  0.42941127  0.36938812  0.79750761    -0.17300
C741        C  0.43995176  0.39507962  0.79154900    -0.27700
C742        C  0.44825220  0.40906528  0.81476544     0.18400
C743        C  0.43433532  0.35753771  0.87898954     0.12300
C744        C  0.41563893  0.32981811  0.83189705    -0.12000
H745        H  0.42307748  0.35868002  0.77975227     0.12600
C746        C  0.46011081  0.43564729  0.80978835    -0.22900
H747        H  0.45227555  0.40690961  0.86101660     0.08300
C748        C  0.44353687  0.33032588  0.88852410     0.04600
C749        C  0.44360980  0.32111460  0.91802605    -0.20100
C750        C  0.43490190  0.33892522  0.93838663    -0.12400
C751        C  0.42531903  0.36545679  0.92862038     0.13300
C752        C  0.42513985  0.37439059  0.89884895    -0.22800
C753        C  0.45359022  0.31174059  0.86772552    -0.05900
H754        H  0.45100875  0.30084022  0.92542224     0.14800
C755        C  0.41519744  0.38403671  0.94921582    -0.16100
H756        H  0.41812474  0.39529320  0.89112434     0.09200
H757        H  0.46788575  0.42505793  0.79361276     0.07000
H758        H  0.46605873  0.44161295  0.83018701     0.08200
H759        H  0.45555189  0.46103518  0.80182880     0.07300
H760        H  0.40758619  0.34068326  0.84735357     0.02100
H761        H  0.42056283  0.30570590  0.84156022     0.02600
H762        H  0.41002168  0.32186804  0.81156697     0.06100
H763        H  0.46003078  0.29099322  0.87887831     0.05100
H764        H  0.46110111  0.33129542  0.85795310    -0.00700
H765        H  0.44738506  0.29870369  0.85007042     0.00800
H766        H  0.42128519  0.40020170  0.96520474     0.04500
H767        H  0.40856783  0.36408658  0.96093789     0.06400
H768        H  0.40786830  0.40226332  0.93741539     0.07300
C769        C  0.30560440  0.33953638  0.84764499    -0.22300
C770        C  0.31439310  0.36921509  0.85167033     0.09600
C771        C  0.32111742  0.38518883  0.82747975     0.10000
C772        C  0.31830210  0.37203595  0.79937342    -0.17300
C773        C  0.30887834  0.34328615  0.79497372    -0.27700
C774        C  0.30264678  0.32636834  0.81969418     0.18400
C775        C  0.31448906  0.38580593  0.88088946     0.12300
C776        C  0.33099943  0.41647969  0.83137138    -0.12000
H777        H  0.32327207  0.38476081  0.78071071     0.12600
C778        C  0.29224333  0.29575743  0.81713524    -0.22900
H779        H  0.30043944  0.32774753  0.86652279     0.08300
C780        C  0.30380454  0.41058016  0.88848083     0.04600
C781        C  0.30277343  0.42228307  0.91735170    -0.20100
C782        C  0.31186694  0.40900607  0.93915186    -0.12400
C783        C  0.32290661  0.38495519  0.93136033     0.13300
C784        C  0.32411706  0.37376544  0.90213115    -0.22800
C785        C  0.29304866  0.42346623  0.86636608    -0.05900
H786        H  0.29424913  0.44050094  0.92321795     0.14800
C787        C  0.33343546  0.37118895  0.95352447    -0.16100
H788        H  0.33224916  0.35461081  0.89599734     0.09200
H789        H  0.28794127  0.28753602  0.83872036     0.07000
H790        H  0.29767847  0.27223122  0.80758381     0.08200
H791        H  0.28300335  0.30358208  0.80335336     0.07300
H792        H  0.34008093  0.40877330  0.84561525     0.02100
H793        H  0.32515939  0.43894582  0.84162443     0.02600
H794        H  0.33541793  0.42579086  0.81019107     0.06100
H795        H  0.28535072  0.44264373  0.87605914     0.05100
H796        H  0.28684349  0.40061167  0.85768215    -0.00700
H797        H  0.29863888  0.43694699  0.84807690     0.00800
H798        H  0.32788626  0.35430176  0.96984282     0.04500
H799        H  0.33873730  0.39384364  0.96471461     0.06400
H800        H  0.34188723  0.35468010  0.94315022     0.07300
C801        C  0.35650608  0.35965868  0.65383674    -0.22300
C802        C  0.36612883  0.35695184  0.67715701     0.09600
C803        C  0.36174204  0.33997531  0.70314626     0.10000
C804        C  0.34762923  0.32749561  0.70574800    -0.17300
C805        C  0.33764827  0.33212060  0.68316481    -0.27700
C806        C  0.34228331  0.34758490  0.65651533     0.18400
C807        C  0.38060991  0.37315199  0.67474372     0.12300
C808        C  0.37190155  0.33573505  0.72841681    -0.12000
H809        H  0.34416800  0.31582133  0.72620522     0.12600
C810        C  0.33237776  0.35118092  0.63075529    -0.22900
H811        H  0.36003688  0.37218411  0.63377756     0.08300
C812        C  0.39220175  0.35449725  0.66248669     0.04600
C813        C  0.40609418  0.36849028  0.66503968    -0.20100
C814        C  0.40882122  0.40065890  0.68002507    -0.12400
C815        C  0.39688651  0.42061634  0.69033205     0.13300
C816        C  0.38299308  0.40652597  0.68744128    -0.22800
C817        C  0.38995369  0.31914967  0.64769870    -0.05900
H818        H  0.41493811  0.35312434  0.65637224     0.14800
C819        C  0.39849435  0.45621252  0.70514661    -0.16100
H820        H  0.37393152  0.42088234  0.69639747     0.09200
H821        H  0.33811106  0.36113755  0.61113410     0.07000
H822        H  0.32368858  0.37033825  0.63568644     0.08200
H823        H  0.32770048  0.32485098  0.62530258     0.07300
H824        H  0.37544404  0.36225158  0.73625273     0.02100
H825        H  0.38139402  0.32017196  0.72137843     0.02600
H826        H  0.36681255  0.32161884  0.74702352     0.06100
H827        H  0.40016194  0.30781794  0.63943836     0.05100
H828        H  0.38260237  0.32245883  0.62889006    -0.00700
H829        H  0.38521096  0.29993319  0.66336097     0.00800
H830        H  0.38795656  0.46838638  0.71028090     0.04500
H831        H  0.40433632  0.47487078  0.69060160     0.06400
H832        H  0.40428917  0.45310559  0.72610719     0.07300
C833        C  0.25182919  0.20563625  0.96438986    -0.22300
C834        C  0.24823066  0.22177708  0.99091126     0.09600
C835        C  0.23985609  0.20344198  0.01152022     0.10000
C836        C  0.23450755  0.16981452  0.00431758    -0.17300
C837        C  0.23716076  0.15457311  0.97680038    -0.27700
C838        C  0.24627398  0.17236875  0.95675014     0.18400
C839        C  0.25304835  0.25847139  0.99595994     0.12300
C840        C  0.23619510  0.21985998  0.04058950    -0.12000
H841        H  0.22742423  0.15632538  0.01948729     0.12600
C842        C  0.24958509  0.15911190  0.92635062    -0.22900
H843        H  0.25845130  0.21999310  0.94888804     0.08300
C844        C  0.26702656  0.26536782  0.00553652     0.04600
C845        C  0.27162432  0.30053346  0.00755870    -0.20100
C846        C  0.26260198  0.32912361  0.00018371    -0.12400
C847        C  0.24841273  0.32219345  0.99116839     0.13300
C848        C  0.24380872  0.28670779  0.98919337    -0.22800
C849        C  0.27705997  0.23562396  0.01369813    -0.05900
H850        H  0.28238094  0.30574259  0.01533133     0.14800
C851        C  0.23808390  0.35097617  0.98239883    -0.16100
H852        H  0.23305792  0.28093839  0.98166608     0.09200
H853        H  0.26133685  0.15585990  0.92389366     0.07000
H854        H  0.24585696  0.17893472  0.91009718     0.08200
H855        H  0.24453588  0.13348606  0.92079237     0.07300
H856        H  0.23014983  0.24491975  0.03722224     0.02100
H857        H  0.24616977  0.22578786  0.05279223     0.02600
H858        H  0.22951194  0.20181676  0.05413739     0.06100
H859        H  0.28759057  0.24583917  0.02118511     0.05100
H860        H  0.27894076  0.21815285  0.99453904    -0.00700
H861        H  0.27231215  0.21967448  0.03165531     0.00800
H862        H  0.23426773  0.34588343  0.95983832     0.04500
H863        H  0.24289243  0.37787148  0.98260064     0.06400
H864        H  0.22874544  0.35078509  0.99742096     0.07300
C865        C  0.23636253  0.13100792  0.82194955    -0.22300
C866        C  0.23609581  0.16827437  0.82357692     0.09600
C867        C  0.22830727  0.18469099  0.84623454     0.10000
C868        C  0.22135071  0.16358913  0.86720882    -0.17300
C869        C  0.22212228  0.12609059  0.86673335    -0.27700
C870        C  0.22957997  0.10965978  0.84323404     0.18400
C871        C  0.24451529  0.18976957  0.80217132     0.12300
C872        C  0.22777624  0.22461474  0.84894203    -0.12000
H873        H  0.21581088  0.17681794  0.88493745     0.12600
C874        C  0.23052911  0.06982975  0.84020965    -0.22900
H875        H  0.24225490  0.11857720  0.80428800     0.08300
C876        C  0.25943639  0.19441061  0.80513491     0.04600
C877        C  0.26688819  0.21610998  0.78519343    -0.20100
C878        C  0.25981447  0.23375394  0.76227420    -0.12400
C879        C  0.24477752  0.22877692  0.75930196     0.13300
C880        C  0.23739419  0.20689180  0.77926435    -0.22800
C881        C  0.26746559  0.17687744  0.82969641    -0.05900
H882        H  0.27832734  0.21962696  0.78778733     0.14800
C883        C  0.23638365  0.24549728  0.73481855    -0.16100
H884        H  0.22593706  0.20319664  0.77712159     0.09200
H885        H  0.23586374  0.06192689  0.81951476     0.07000
H886        H  0.21961537  0.05811980  0.84023360     0.08200
H887        H  0.23691577  0.05852240  0.85834822     0.07300
H888        H  0.22271795  0.23621872  0.82923607     0.02100
H889        H  0.23879732  0.23532197  0.85121807     0.02600
H890        H  0.22147844  0.23320745  0.86828001     0.06100
H891        H  0.27903405  0.18366871  0.82922720     0.05100
H892        H  0.26644996  0.14754402  0.82794913    -0.00700
H893        H  0.26301011  0.18573972  0.85097779     0.00800
H894        H  0.22500347  0.23692708  0.73501073     0.04500
H895        H  0.24104860  0.23760811  0.71346733     0.06400
H896        H  0.23649357  0.27488317  0.73702815     0.07300
C897        C  0.13643818  0.12383901  0.90293705    -0.22300
C898        C  0.12591106  0.11128998  0.92204083     0.09600
C899        C  0.12916943  0.08316519  0.94124981     0.10000
C900        C  0.14335200  0.07102897  0.94326055    -0.17300
C901        C  0.15437558  0.08605791  0.92621320    -0.27700
C902        C  0.15060938  0.11148585  0.90451063     0.18400
C903        C  0.11188482  0.12972693  0.92305347     0.12300
C904        C  0.11769954  0.06623970  0.95981214    -0.12000
H905        H  0.14590142  0.05086944  0.95930708     0.12600
C906        C  0.16131684  0.12628969  0.88302568    -0.22900
H907        H  0.13367043  0.14461869  0.88756545     0.08300
C908        C  0.10884069  0.15509012  0.94494967     0.04600
C909        C  0.09508439  0.16994876  0.94664446    -0.20100
C910        C  0.08433494  0.16043951  0.92669057    -0.12400
C911        C  0.08795052  0.13796693  0.90286563     0.13300
C912        C  0.10160088  0.12236856  0.90169828    -0.22800
C913        C  0.12006877  0.16620180  0.96673565    -0.05900
H914        H  0.09249639  0.18738307  0.96474830     0.14800
C915        C  0.07775853  0.13008484  0.87821758    -0.16100
H916        H  0.10420204  0.10411782  0.88413967     0.09200
H917        H  0.16909780  0.14383052  0.89428526     0.07000
H918        H  0.15605058  0.14261407  0.86594478     0.08200
H919        H  0.16698890  0.10417168  0.87186569     0.07300
H920        H  0.10924412  0.05500828  0.94551275     0.02100
H921        H  0.11280365  0.08617951  0.97459998     0.02600
H922        H  0.12203760  0.04435199  0.97343514     0.06100
H923        H  0.11595058  0.18661462  0.98213205     0.05100
H924        H  0.12941369  0.17763812  0.95504034    -0.00700
H925        H  0.12365958  0.14302741  0.97973794     0.00800
H926        H  0.08304602  0.13626970  0.85709170     0.04500
H927        H  0.06789520  0.14639239  0.87916334     0.06400
H928        H  0.07481219  0.10147744  0.87849300     0.07300
C929        C  0.25279017  0.26141563  0.17236997    -0.22300
C930        C  0.25124956  0.29851177  0.17282608     0.09600
C931        C  0.24258520  0.31436274  0.19447003     0.10000
C932        C  0.23557683  0.29277563  0.21501277    -0.17300
C933        C  0.23703183  0.25557881  0.21466396    -0.27700
C934        C  0.24569675  0.23964191  0.19277961     0.18400
C935        C  0.25776087  0.32010053  0.14904135     0.12300
C936        C  0.24082819  0.35414408  0.19603881    -0.12000
H937        H  0.22895158  0.30510110  0.23161282     0.12600
C938        C  0.24715968  0.19994856  0.18908621    -0.22900
H939        H  0.25921191  0.24926844  0.15533456     0.08300
C940        C  0.27244097  0.32907889  0.14851594     0.04600
C941        C  0.27786192  0.35002501  0.12548250    -0.20100
C942        C  0.26884872  0.36276683  0.10332691    -0.12400
C943        C  0.25411362  0.35340796  0.10392055     0.13300
C944        C  0.24885109  0.33212244  0.12663487    -0.22800
C945        C  0.28228800  0.31698846  0.17247528    -0.05900
H946        H  0.28913306  0.35683388  0.12493170     0.14800
C947        C  0.24355431  0.36430744  0.08075172    -0.16100
H948        H  0.23760920  0.32488734  0.12695058     0.09200
H949        H  0.25846568  0.19205559  0.19268606     0.07000
H950        H  0.24405877  0.19245440  0.16651501     0.08200
H951        H  0.24026166  0.18441434  0.20400752     0.07300
H952        H  0.23576047  0.36410434  0.17575086     0.02100
H953        H  0.25146718  0.36690291  0.19871011     0.02600
H954        H  0.23398228  0.36222998  0.21474049     0.06100
H955        H  0.29339031  0.32672440  0.16905636     0.05100
H956        H  0.28255611  0.28749620  0.17321083    -0.00700
H957        H  0.27840374  0.32729825  0.19377889     0.00800
H958        H  0.23915854  0.34020323  0.06996143     0.04500
H959        H  0.24821328  0.38138525  0.06369729     0.06400
H960        H  0.23461435  0.37926096  0.09099308     0.07300
C961        C  0.17689238  0.09423097  0.09034926    -0.22300
C962        C  0.18357326  0.12618559  0.09807832     0.09600
C963        C  0.18935879  0.14830813  0.07618825     0.10000
C964        C  0.18909479  0.13683211  0.04706635    -0.17300
C965        C  0.18339230  0.10347504  0.03945513    -0.27700
C966        C  0.17669794  0.08251968  0.06127429     0.18400
C967        C  0.18581795  0.13385119  0.12937359     0.12300
C968        C  0.19610274  0.18357322  0.08366502    -0.12000
H969        H  0.19411686  0.15312236  0.03042872     0.12600
C970        C  0.16927886  0.04795249  0.05421657    -0.22900
H971        H  0.17234734  0.07766984  0.10736937     0.08300
C972        C  0.17484844  0.14737806  0.14740869     0.04600
C973        C  0.17772640  0.15383571  0.17703614    -0.20100
C974        C  0.19130003  0.14690894  0.18875784    -0.12400
C975        C  0.20227364  0.13342662  0.17057882     0.13300
C976        C  0.19931620  0.12666005  0.14118925    -0.22800
C977        C  0.16027424  0.15559996  0.13523011    -0.05900
H978        H  0.16945459  0.16481716  0.19100180     0.14800
C979        C  0.21731933  0.12685820  0.18110830    -0.16100
H980        H  0.20769430  0.11621656  0.12718604     0.09200
H981        H  0.16122222  0.05233844  0.03680413     0.07000
H982        H  0.16362480  0.03692794  0.07354749     0.08200
H983        H  0.17714519  0.02771377  0.04700896     0.07300
H984        H  0.20544550  0.17949246  0.09819598     0.02100
H985        H  0.18814030  0.20069052  0.09492467     0.02600
H986        H  0.19988639  0.19780126  0.06385759     0.06100
H987        H  0.15300203  0.16653306  0.15220581     0.05100
H988        H  0.15535237  0.13099372  0.12637090    -0.00700
H989        H  0.16126924  0.17553381  0.11747497     0.00800
H990        H  0.21994051  0.09820274  0.17878889     0.04500
H991        H  0.21894709  0.13457496  0.20414741     0.06400
H992        H  0.22494182  0.14255822  0.16768986     0.07300
C993        C  0.05301192  0.15940703  0.09629437    -0.22300
C994        C  0.06321160  0.13303787  0.10188484     0.09600
C995        C  0.07140756  0.11919645  0.07859677     0.10000
C996        C  0.06885847  0.13127324  0.05003986    -0.17300
C997        C  0.05833690  0.15701879  0.04419433    -0.27700
C998        C  0.05046401  0.17172026  0.06786565     0.18400
C999        C  0.06389781  0.11790552  0.13179217     0.12300
C1000       C  0.08278787  0.09161126  0.08387157    -0.12000
H1001       H  0.07495024  0.12007777  0.03209892     0.12600
C1002       C  0.03878279  0.19888874  0.06342764    -0.22900
H1003       H  0.04663449  0.16950674  0.11427227     0.08300
C1004       C  0.06941914  0.13720877  0.15564709     0.04600
C1005       C  0.06822240  0.12308101  0.18397188    -0.20100
C1006       C  0.06154069  0.09005989  0.18917782    -0.12400
C1007       C  0.05634705  0.07036275  0.16478623     0.13300
C1008       C  0.05762321  0.08465898  0.13661338    -0.22800
C1009       C  0.07653848  0.17274250  0.15119714    -0.05900
H1010       H  0.07231631  0.13834317  0.20220666     0.14800
C1011       C  0.04897021  0.03483797  0.16781638    -0.16100
H1012       H  0.05327134  0.07026261  0.11812751     0.09200
H1013       H  0.03331239  0.20580029  0.08421639     0.07000
H1014       H  0.03056921  0.18822584  0.04827237     0.08200
H1015       H  0.04337865  0.22382300  0.05446709     0.07300
H1016       H  0.07792091  0.06709769  0.09299669     0.02100
H1017       H  0.09080545  0.10216636  0.09950458     0.02600
H1018       H  0.08845262  0.08431285  0.06339293     0.06100
H1019       H  0.08058772  0.18394850  0.17204381     0.05100
H1020       H  0.06880560  0.19198167  0.14186492    -0.00700
H1021       H  0.08574057  0.16973341  0.13602896     0.00800
H1022       H  0.04537137  0.02415246  0.14644159     0.04500
H1023       H  0.03933116  0.03745298  0.18186994     0.06400
H1024       H  0.05651072  0.01516624  0.17719653     0.07300
C1025       C  0.13590996  0.15812167  0.28919491    -0.22300
C1026       C  0.13362298  0.12784138  0.30640080     0.09600
C1027       C  0.14516670  0.11290690  0.32176421     0.10000
C1028       C  0.15884501  0.12804815  0.31900414    -0.17300
C1029       C  0.16153090  0.15707717  0.30020895    -0.27700
C1030       C  0.14968211  0.17282609  0.28561433     0.18400
C1031       C  0.11934748  0.11038019  0.30580682     0.12300
C1032       C  0.14317979  0.07993365  0.34000959    -0.12000
H1033       H  0.16764999  0.11571976  0.33053814     0.12600
C1034       C  0.15135370  0.20395382  0.26516856    -0.22900
H1035       H  0.12692208  0.16933976  0.27744753     0.08300
C1036       C  0.10853940  0.11873357  0.32614936     0.04600
C1037       C  0.09495339  0.10299586  0.32329531    -0.20100
C1038       C  0.09175164  0.07954858  0.30015768    -0.12400
C1039       C  0.10287122  0.07044405  0.28026523     0.13300
C1040       C  0.11649927  0.08582046  0.28357307    -0.22800
C1041       C  0.11119518  0.14522827  0.35021060    -0.05900
H1042       H  0.08659319  0.11029012  0.33858917     0.14800
C1043       C  0.10042694  0.04620166  0.25450355    -0.16100
H1044       H  0.12492578  0.07955810  0.26810339     0.09200
H1045       H  0.14091150  0.21275518  0.25616116     0.07000
H1046       H  0.15824963  0.19642116  0.24640078     0.08200
H1047       H  0.15609155  0.22686771  0.27701083     0.07300
H1048       H  0.13927510  0.05780072  0.32607785     0.02100
H1049       H  0.13526734  0.08499565  0.35759359     0.02600
H1050       H  0.15334775  0.07137016  0.35035509     0.06100
H1051       H  0.10156684  0.14902588  0.36411524     0.05100
H1052       H  0.11413167  0.17135882  0.34064882    -0.00700
H1053       H  0.12005002  0.13593008  0.36436020     0.00800
H1054       H  0.09207092  0.05754126  0.24004300     0.04500
H1055       H  0.09712219  0.01945166  0.26222193     0.06400
H1056       H  0.11027454  0.04277794  0.24117904     0.07300
C1057       C  0.01348177  0.12791647  0.41085613    -0.22300
C1058       C  0.00849868  0.16231749  0.40468354     0.09600
C1059       C  0.01159318  0.17759666  0.37726064     0.10000
C1060       C  0.01944685  0.15809004  0.35656608    -0.17300
C1061       C  0.02405969  0.12315399  0.36216736    -0.27700
C1062       C  0.02109095  0.10795643  0.38985234     0.18400
C1063       C  0.00004098  0.18214664  0.42703950     0.12300
C1064       C  0.00617328  0.21409352  0.36942128    -0.12000
H1065       H  0.02141367  0.16968507  0.33527068     0.12600
C1066       C  0.02606180  0.07104131  0.39756915    -0.22900
H1067       H  0.01118967  0.11645311  0.43205454     0.08300
C1068       C  0.98530150  0.17591997  0.43139308     0.04600
C1069       C  0.97760224  0.19705431  0.45140475    -0.20100
C1070       C  0.98421942  0.22468182  0.46729329    -0.12400
C1071       C  0.99920508  0.23037238  0.46297046     0.13300
C1072       C  0.00679499  0.20899126  0.44303113    -0.22800
C1073       C  0.97764669  0.14735369  0.41445432    -0.05900
H1074       H  0.96627228  0.19206039  0.45436246     0.14800
C1075       C  0.00753266  0.25872372  0.47896679    -0.16100
H1076       H  0.01812736  0.21354134  0.43949051     0.09200
H1077       H  0.02364252  0.06440788  0.42067807     0.07000
H1078       H  0.03781590  0.06901652  0.39437898     0.08200
H1079       H  0.02057462  0.05105892  0.38372144     0.07300
H1080       H  0.01072548  0.23417225  0.38455172     0.02100
H1081       H  0.99431445  0.21462076  0.37099902     0.02600
H1082       H  0.00921175  0.22170689  0.34681936     0.06100
H1083       H  0.96609117  0.14615269  0.42009220     0.05100
H1084       H  0.98245078  0.12104671  0.41936047    -0.00700
H1085       H  0.97860716  0.15271758  0.39070263     0.00800
H1086       H  0.01905699  0.25857213  0.47296068     0.04500
H1087       H  0.00687265  0.25416306  0.50286855     0.06400
H1088       H  0.00330548  0.28543937  0.47337190     0.07300
C1089       C  0.86165166  0.39047029  0.53649764    -0.22300
C1090       C  0.86433359  0.36420668  0.55746739     0.09600
C1091       C  0.85348165  0.35531887  0.57763023     0.10000
C1092       C  0.83998509  0.37169936  0.57542297    -0.17300
C1093       C  0.83692550  0.39659235  0.55329762    -0.27700
C1094       C  0.84810088  0.40636197  0.53374280     0.18400
C1095       C  0.87842250  0.34560179  0.55688270     0.12300
C1096       C  0.85591850  0.32744274  0.60067985    -0.12000
H1097       H  0.83158161  0.36390836  0.59045129     0.12600
C1098       C  0.84577602  0.43177585  0.50873997    -0.22900
H1099       H  0.87012266  0.39750978  0.52135526     0.08300
C1100       C  0.88224306  0.32271298  0.53365794     0.04600
C1101       C  0.89623010  0.30911238  0.53209646    -0.20100
C1102       C  0.90660716  0.31792320  0.55310031    -0.12400
C1103       C  0.90236478  0.33844577  0.57770216     0.13300
C1104       C  0.88837612  0.35221091  0.57908171    -0.22800
C1105       C  0.87162102  0.31291123  0.51026013    -0.05900
H1106       H  0.89927376  0.29321520  0.51334882     0.14800
C1107       C  0.91241463  0.34599316  0.60269012    -0.16100
H1108       H  0.88533540  0.36932607  0.59709390     0.09200
H1109       H  0.83733858  0.42132072  0.49400240     0.07000
H1110       H  0.85562259  0.43542272  0.49544885     0.08200
H1111       H  0.84264667  0.45829541  0.51725230     0.07300
H1112       H  0.86456594  0.33606717  0.61565856     0.02100
H1113       H  0.85899376  0.30192376  0.59020630     0.02600
H1114       H  0.84615190  0.32272781  0.61398012     0.06100
H1115       H  0.87620724  0.29371071  0.49436664     0.05100
H1116       H  0.86831856  0.33691707  0.49795995    -0.00700
H1117       H  0.86204812  0.30046771  0.52039489     0.00800
H1118       H  0.92106939  0.36432993  0.59576275     0.04500
H1119       H  0.91708459  0.32070913  0.61076700     0.06400
H1120       H  0.90678060  0.35889077  0.62125472     0.07300
C1121       C  0.94297496  0.36520299  0.33941690    -0.22300
C1122       C  0.92898619  0.36131739  0.34993193     0.09600
C1123       C  0.91729102  0.36961677  0.33173214     0.10000
C1124       C  0.91992031  0.38141512  0.30306490    -0.17300
C1125       C  0.93397761  0.38546595  0.29271073    -0.27700
C1126       C  0.94564804  0.37721908  0.31108828     0.18400
C1127       C  0.92724993  0.34903501  0.38039061     0.12300
C1128       C  0.90215109  0.36597304  0.34257837    -0.12000
H1129       H  0.91103935  0.38804239  0.28889139     0.12600
C1130       C  0.96107359  0.38049618  0.30157069    -0.22900
H1131       H  0.95191598  0.35890056  0.35356698     0.08300
C1132       C  0.92993740  0.31341775  0.38799392     0.04600
C1133       C  0.93175325  0.30449432  0.41743577    -0.20100
C1134       C  0.93098279  0.33039507  0.43966187    -0.12400
C1135       C  0.92677569  0.36554423  0.43197977     0.13300
C1136       C  0.92514577  0.37436530  0.40236023    -0.22800
C1137       C  0.93126629  0.28502373  0.36490806    -0.05900
H1138       H  0.93438548  0.27724402  0.42287802     0.14800
C1139       C  0.92424278  0.39430685  0.45435885    -0.16100
H1140       H  0.92289805  0.40161175  0.39616641     0.09200
H1141       H  0.96635018  0.35411381  0.30311881     0.07000
H1142       H  0.96673079  0.39944833  0.31614219     0.08200
H1143       H  0.96235226  0.39005060  0.27886219     0.07300
H1144       H  0.90045654  0.38368373  0.36166671     0.02100
H1145       H  0.90010671  0.33802286  0.34917889     0.02600
H1146       H  0.89426682  0.37330998  0.32550170     0.06100
H1147       H  0.93310878  0.25835995  0.37460336     0.05100
H1148       H  0.94038570  0.29104337  0.35016790    -0.00700
H1149       H  0.92125237  0.28386930  0.35192733     0.00800
H1150       H  0.93422289  0.40010709  0.46650068     0.04500
H1151       H  0.91572037  0.38578885  0.46976626     0.06400
H1152       H  0.92069494  0.41956685  0.44412413     0.07300
C1153       C  0.00842367  0.20142685  0.22029155    -0.22300
C1154       C  0.99989505  0.21807367  0.24132637     0.09600
C1155       C  0.99545868  0.19928788  0.26638639     0.10000
C1156       C  0.00077957  0.16497731  0.27112888    -0.17300
C1157       C  0.01023893  0.14928011  0.25109863    -0.27700
C1158       C  0.01346419  0.16692078  0.22459535     0.18400
C1159       C  0.99451746  0.25385764  0.23493281     0.12300
C1160       C  0.98532959  0.21563970  0.28821449    -0.12000
H1161       H  0.99833236  0.15144843  0.29142777     0.12600
C1162       C  0.02229575  0.15022975  0.20060693    -0.22900
H1163       H  0.01114189  0.21548173  0.20036863     0.08300
C1164       C  0.00127396  0.28499730  0.24530007     0.04600
C1165       C  0.99525759  0.31829605  0.23868027    -0.20100
C1166       C  0.98286890  0.32047543  0.22157709    -0.12400
C1167       C  0.97678028  0.28906864  0.20968026     0.13300
C1168       C  0.98259166  0.25619314  0.21691413    -0.22800
C1169       C  0.01476375  0.28292145  0.26312565    -0.05900
H1170       H  0.99996892  0.34240478  0.24739338     0.14800
C1171       C  0.96446629  0.28978691  0.18841375    -0.16100
H1172       H  0.97786279  0.23199200  0.20834753     0.09200
H1173       H  0.03248563  0.16511397  0.19794472     0.07000
H1174       H  0.01626422  0.15131375  0.17976638     0.08200
H1175       H  0.02475840  0.12184309  0.20477997     0.07300
H1176       H  0.97506182  0.22226189  0.27734674     0.02100
H1177       H  0.99005341  0.24027161  0.29742789     0.02600
H1178       H  0.98299717  0.19723001  0.30657089     0.06100
H1179       H  0.01870560  0.30975823  0.26930279     0.05100
H1180       H  0.02326394  0.26944204  0.25027211    -0.00700
H1181       H  0.01277623  0.26762534  0.28342830     0.00800
H1182       H  0.96141410  0.26265362  0.18109973     0.04500
H1183       H  0.96771738  0.30483594  0.16870815     0.06400
H1184       H  0.95482125  0.30185107  0.19844318     0.07300
C1185       C  0.99909265  0.31530778  0.02978636    -0.22300
C1186       C  0.99344748  0.29948829  0.05502490     0.09600
C1187       C  0.99533184  0.26253553  0.05928881     0.10000
C1188       C  0.00281264  0.24246777  0.03827473    -0.17300
C1189       C  0.00882941  0.25847127  0.01341882    -0.27700
C1190       C  0.00688285  0.29554195  0.00912999     0.18400
C1191       C  0.98604996  0.32239208  0.07703651     0.12300
C1192       C  0.98986995  0.24436560  0.08640988    -0.12000
H1193       H  0.00426878  0.21416402  0.04160945     0.12600
C1194       C  0.01247335  0.31530115  0.98285815    -0.22900
H1195       H  0.99746494  0.34352245  0.02622497     0.08300
C1196       C  0.99358836  0.34831252  0.09322442     0.04600
C1197       C  0.98627718  0.36881559  0.11410059    -0.20100
C1198       C  0.97160459  0.36387349  0.11985238    -0.12400
C1199       C  0.96398090  0.33837334  0.10312063     0.13300
C1200       C  0.97130479  0.31811730  0.08196053    -0.22800
C1201       C  0.00950777  0.35332619  0.08956351    -0.05900
H1202       H  0.99228381  0.38775135  0.12707304     0.14800
C1203       C  0.94813109  0.33217145  0.10637793    -0.16100
H1204       H  0.96543213  0.29878363  0.06912196     0.09200
H1205       H  0.02000158  0.33641015  0.99004931     0.07000
H1206       H  0.00340995  0.32792656  0.97114398     0.08200
H1207       H  0.01813635  0.29809973  0.96712487     0.07300
H1208       H  0.97803399  0.24610933  0.08745228     0.02100
H1209       H  0.99453250  0.25723490  0.10603534     0.02600
H1210       H  0.99281533  0.21575876  0.08682365     0.06100
H1211       H  0.01382187  0.37329885  0.10510951     0.05100
H1212       H  0.01198267  0.36276215  0.06720000    -0.00700
H1213       H  0.01509688  0.32774293  0.09354791     0.00800
H1214       H  0.94289116  0.33473937  0.08474923     0.04500
H1215       H  0.94289974  0.35164244  0.12097823     0.06400
H1216       H  0.94620947  0.30493731  0.11488687     0.07300
C1217       C  0.82272802  0.37199240  0.33309321    -0.22300
C1218       C  0.81281602  0.36157895  0.35446353     0.09600
C1219       C  0.80089053  0.34072149  0.34666054     0.10000
C1220       C  0.79926673  0.33019027  0.31766007    -0.17300
C1221       C  0.80902582  0.34072830  0.29601259    -0.27700
C1222       C  0.82103721  0.36166428  0.30380708     0.18400
C1223       C  0.81402605  0.37565614  0.38437652     0.12300
C1224       C  0.78952685  0.33082837  0.36867116    -0.12000
H1225       H  0.78991342  0.31487390  0.31157836     0.12600
C1226       C  0.83239774  0.37287474  0.28228585    -0.22900
H1227       H  0.83175784  0.38846311  0.33927979     0.08300
C1228       C  0.81924579  0.35485850  0.40755170     0.04600
C1229       C  0.81713095  0.36650359  0.43635870    -0.20100
C1230       C  0.80996399  0.39863028  0.44244864    -0.12400
C1231       C  0.80573257  0.42059196  0.41864776     0.13300
C1232       C  0.80783825  0.40865336  0.39003987    -0.22800
C1233       C  0.82680901  0.32019662  0.40179088    -0.05900
H1234       H  0.82076161  0.34988461  0.45417099     0.14800
C1235       C  0.79850777  0.45604115  0.42260555    -0.16100
H1236       H  0.80395374  0.42434070  0.37184786     0.09200
H1237       H  0.84300350  0.36336881  0.28988977     0.07000
H1238       H  0.83265825  0.40233629  0.28079712     0.08200
H1239       H  0.83074573  0.36193404  0.26012934     0.07300
H1240       H  0.78467611  0.35529622  0.37796559     0.02100
H1241       H  0.79426853  0.31491834  0.38657453     0.02600
H1242       H  0.78082141  0.31481923  0.35867600     0.06100
H1243       H  0.83032650  0.30729528  0.42235612     0.05100
H1244       H  0.83641814  0.32513549  0.38808474    -0.00700
H1245       H  0.81960647  0.30150061  0.39017379     0.00800
H1246       H  0.80581922  0.47431575  0.43439785     0.04500
H1247       H  0.78829433  0.45269105  0.43472765     0.06400
H1248       H  0.79588785  0.46880861  0.40142418     0.07300
C1249       C  0.88646177  0.37860635  0.15469347    -0.22300
C1250       C  0.87673365  0.38364542  0.17759189     0.09600
C1251       C  0.88073644  0.40477494  0.20174435     0.10000
C1252       C  0.89476926  0.41793426  0.20352353    -0.17300
C1253       C  0.90498524  0.41030845  0.18183132    -0.27700
C1254       C  0.90050640  0.39188459  0.15632292     0.18400
C1255       C  0.86279875  0.36460545  0.17706136     0.12300
C1256       C  0.87027588  0.41296565  0.22593887    -0.12000
H1257       H  0.89798039  0.43236160  0.22292669     0.12600
C1258       C  0.91038849  0.38574373  0.13076890    -0.22900
H1259       H  0.88323817  0.36284743  0.13600674     0.08300
C1260       C  0.85152364  0.37483125  0.15851821     0.04600
C1261       C  0.83806358  0.35858116  0.16168706    -0.20100
C1262       C  0.83549790  0.33258321  0.18325723    -0.12400
C1263       C  0.84722172  0.32071353  0.20047098     0.13300
C1264       C  0.86069603  0.33665433  0.19678481    -0.22800
C1265       C  0.85348893  0.40395586  0.13631662    -0.05900
H1266       H  0.82931160  0.36755780  0.14808026     0.14800
C1267       C  0.84570649  0.29267031  0.22382089    -0.16100
H1268       H  0.86957116  0.32844384  0.21041760     0.09200
H1269       H  0.90457409  0.37467689  0.11168019     0.07000
H1270       H  0.91880821  0.36632228  0.13662367     0.08200
H1271       H  0.91532876  0.41129285  0.12394742     0.07300
H1272       H  0.86695094  0.38814444  0.23712390     0.02100
H1273       H  0.86068807  0.42627903  0.21675192     0.02600
H1274       H  0.87501581  0.43087709  0.24261637     0.06100
H1275       H  0.84344223  0.40943552  0.12421434     0.05100
H1276       H  0.86177242  0.39611062  0.12017908    -0.00700
H1277       H  0.85685695  0.42885510  0.14739473     0.00800
H1278       H  0.85606258  0.28692457  0.23470381     0.04500
H1279       H  0.84184236  0.26744412  0.21399635     0.06400
H1280       H  0.83816455  0.30178824  0.24100051     0.07300
C1281       C  0.46414252  0.66374590  0.61286532    -0.22300
C1282       C  0.45517203  0.63653165  0.60273233     0.09600
C1283       C  0.44599359  0.64265813  0.57898836     0.10000
C1284       C  0.44622592  0.67584554  0.56534206    -0.17300
C1285       C  0.45545232  0.70310647  0.57481126    -0.27700
C1286       C  0.46441882  0.69712593  0.59916579     0.18400
C1287       C  0.45539461  0.60182131  0.61755146     0.12300
C1288       C  0.43615134  0.61398089  0.56774221    -0.12000
H1289       H  0.43937107  0.68019041  0.54661980     0.12600
C1290       C  0.47390708  0.72589346  0.61137418    -0.22900
H1291       H  0.47097092  0.65871562  0.63151232     0.08300
C1292       C  0.46607119  0.57646624  0.61155030     0.04600
C1293       C  0.46597676  0.54416946  0.62674341    -0.20100
C1294       C  0.45538669  0.53658878  0.64771867    -0.12400
C1295       C  0.44438406  0.56198421  0.65295493     0.13300
C1296       C  0.44462025  0.59427852  0.63777424    -0.22800
C1297       C  0.47751778  0.58354059  0.58909015    -0.05900
H1298       H  0.47432539  0.52488628  0.62236661     0.14800
C1299       C  0.43258744  0.55628261  0.67502353    -0.16100
H1300       H  0.43642238  0.61407489  0.64186095     0.09200
H1301       H  0.48227239  0.73324987  0.59526861     0.07000
H1302       H  0.47943161  0.71711577  0.63156628     0.08200
H1303       H  0.46735008  0.74958400  0.61685232     0.07300
H1304       H  0.42851272  0.60598457  0.58512039     0.02100
H1305       H  0.44252350  0.59047654  0.56093491     0.02600
H1306       H  0.42984514  0.62312981  0.54864699     0.06100
H1307       H  0.48496847  0.56070063  0.58683014     0.05100
H1308       H  0.48386461  0.60724416  0.59550477    -0.00700
H1309       H  0.47249543  0.58842617  0.56751908     0.00800
H1310       H  0.42534982  0.57963197  0.67658716     0.04500
H1311       H  0.43724383  0.55189150  0.69700384     0.06400
H1312       H  0.42591587  0.53314774  0.66856747     0.07300
C1313       C  0.29795414  0.09698947  0.58868853    -0.22300
C1314       C  0.28740841  0.10442708  0.60939586     0.09600
C1315       C  0.27679418  0.07905635  0.61590441     0.10000
C1316       C  0.27692883  0.04638997  0.60124007    -0.17300
C1317       C  0.28747670  0.03861017  0.58028303    -0.27700
C1318       C  0.29817835  0.06442533  0.57392624     0.18400
C1319       C  0.28777962  0.13906617  0.62419868     0.12300
C1320       C  0.26537674  0.08653672  0.63833406    -0.12000
H1321       H  0.26872628  0.02687768  0.60614025     0.12600
C1322       C  0.30960113  0.05882551  0.55103628    -0.22900
H1323       H  0.30601051  0.11697543  0.58400877     0.08300
C1324       C  0.29660606  0.14467851  0.64860353     0.04600
C1325       C  0.29628520  0.17769598  0.66258553    -0.20100
C1326       C  0.28732509  0.20515196  0.65267883    -0.12400
C1327       C  0.27886583  0.19977819  0.62746029     0.13300
C1328       C  0.27920613  0.16661209  0.61351957    -0.22800
C1329       C  0.30617053  0.11564921  0.66009386    -0.05900
H1330       H  0.30280689  0.18175089  0.68184988     0.14800
C1331       C  0.26988567  0.22902602  0.61454969    -0.16100
H1332       H  0.27270076  0.16196666  0.59431849     0.09200
H1333       H  0.31642978  0.08277224  0.54817584     0.07000
H1334       H  0.30456473  0.05293196  0.52963501     0.08200
H1335       H  0.31675954  0.03668718  0.55755237     0.07300
H1336       H  0.25901560  0.11005721  0.63161346     0.02100
H1337       H  0.27041625  0.09195017  0.65981080     0.02600
H1338       H  0.25794087  0.06369593  0.64093589     0.06100
H1339       H  0.31227113  0.12444091  0.67959440     0.05100
H1340       H  0.31397844  0.10768927  0.64301180    -0.00700
H1341       H  0.29961886  0.09220618  0.66633708     0.00800
H1342       H  0.26486711  0.22076630  0.59365523     0.04500
H1343       H  0.27675727  0.25248040  0.61009131     0.06400
H1344       H  0.26113368  0.23646948  0.62974432     0.07300
C1345       C  0.24981537  0.06686542  0.45801560    -0.22300
C1346       C  0.24549683  0.05224852  0.43125591     0.09600
C1347       C  0.24823117  0.01596371  0.42543126     0.10000
C1348       C  0.25489313  0.99491350  0.44680809    -0.17300
C1349       C  0.25957065  0.00974043  0.47321435    -0.27700
C1350       C  0.25694465  0.04609601  0.47897907     0.18400
C1351       C  0.23921633  0.07602563  0.40872665     0.12300
C1352       C  0.24463525  0.99983015  0.39624951    -0.12000
H1353       H  0.25687576  0.96703847  0.44250730     0.12600
C1354       C  0.26151744  0.06284395  0.50737632    -0.22900
H1355       H  0.24784265  0.09480212  0.46223695     0.08300
C1356       C  0.22430487  0.07942109  0.40465754     0.04600
C1357       C  0.21908407  0.10086575  0.38179941    -0.20100
C1358       C  0.22843952  0.11969111  0.36334767    -0.12400
C1359       C  0.24344866  0.11658973  0.36797558     0.13300
C1360       C  0.24854663  0.09496059  0.39061629    -0.22800
C1361       C  0.21394811  0.06046377  0.42447233    -0.05900
H1362       H  0.20765131  0.10276006  0.37816592     0.14800
C1363       C  0.25463449  0.13383713  0.34885450    -0.16100
H1364       H  0.25999502  0.09214772  0.39376751     0.09200
H1365       H  0.25833912  0.09125842  0.50864543     0.07000
H1366       H  0.27332995  0.06142200  0.50961313     0.08200
H1367       H  0.25644619  0.04857901  0.52592238     0.07300
H1368       H  0.25051703  0.01416378  0.37876880     0.02100
H1369       H  0.23297519  0.00185152  0.39211147     0.02600
H1370       H  0.24768416  0.97131524  0.39513416     0.06100
H1371       H  0.20266513  0.06612789  0.41849049     0.05100
H1372       H  0.21564500  0.06929538  0.44733531    -0.00700
H1373       H  0.21562841  0.03131178  0.42314310     0.00800
H1374       H  0.26159207  0.15115149  0.36241922     0.04500
H1375       H  0.25025111  0.15034194  0.33118030     0.06400
H1376       H  0.26135131  0.11289870  0.33859229     0.07300
C1377       C  0.38788896  0.86992472  0.57891981    -0.22300
C1378       C  0.37712667  0.85785536  0.56015134     0.09600
C1379       C  0.38006737  0.82979067  0.54061830     0.10000
C1380       C  0.39407044  0.81680013  0.53824132    -0.17300
C1381       C  0.40532169  0.83134854  0.55478545    -0.27700
C1382       C  0.40195589  0.85682391  0.57675969     0.18400
C1383       C  0.36320052  0.87669802  0.55915983     0.12300
C1384       C  0.36847429  0.81411352  0.52169795    -0.12000
H1385       H  0.39633573  0.79669220  0.52193133     0.12600
C1386       C  0.41298670  0.87071016  0.59790706    -0.22900
H1387       H  0.38541144  0.89083964  0.59441387     0.08300
C1388       C  0.35235025  0.87070297  0.57995245     0.04600
C1389       C  0.33866918  0.88509094  0.57524339    -0.20100
C1390       C  0.33556145  0.90512959  0.55006587    -0.12400
C1391       C  0.34677083  0.91257905  0.53001432     0.13300
C1392       C  0.36046055  0.89865754  0.53514067    -0.22800
C1393       C  0.35505097  0.84790993  0.60636823    -0.05900
H1394       H  0.33018899  0.87939423  0.59072685     0.14800
C1395       C  0.34429823  0.93290582  0.50209926    -0.16100
H1396       H  0.36894934  0.90323943  0.51940876     0.09200
H1397       H  0.40801284  0.88715346  0.61533383     0.07000
H1398       H  0.42086910  0.88785439  0.58650760     0.08200
H1399       H  0.41852084  0.84810219  0.60861609     0.07300
H1400       H  0.36420925  0.83457721  0.50662247     0.02100
H1401       H  0.35965019  0.80399838  0.53568192     0.02600
H1402       H  0.37251126  0.79164444  0.50827043     0.06100
H1403       H  0.34533277  0.84534060  0.62020393     0.05100
H1404       H  0.36365390  0.85993462  0.61983128    -0.00700
H1405       H  0.35837562  0.82085638  0.59940571     0.00800
H1406       H  0.35417686  0.93478276  0.48866007     0.04500
H1407       H  0.34082683  0.96044316  0.50717304     0.06400
H1408       H  0.33603731  0.91927753  0.48873686     0.07300
C1409       C  0.44987037  0.10001180  0.14940836    -0.22300
C1410       C  0.45782214  0.10220179  0.12363156     0.09600
C1411       C  0.46530612  0.07218247  0.11326060     0.10000
C1412       C  0.46449191  0.04015215  0.12893969    -0.17300
C1413       C  0.45623068  0.03762458  0.15451140    -0.27700
C1414       C  0.44897113  0.06816588  0.16507468     0.18400
C1415       C  0.45784575  0.13633990  0.10779120     0.12300
C1416       C  0.47404099  0.07402498  0.08565478    -0.12000
H1417       H  0.47017680  0.01692212  0.12105789     0.12600
C1418       C  0.44068508  0.06795978  0.19337892    -0.22900
H1419       H  0.44429065  0.12344944  0.15721394     0.08300
C1420       C  0.44671781  0.14506180  0.08843728     0.04600
C1421       C  0.44671739  0.17846083  0.07498870    -0.20100
C1422       C  0.45763773  0.20345551  0.08029272    -0.12400
C1423       C  0.46877312  0.19457713  0.10004663     0.13300
C1424       C  0.46865669  0.16110121  0.11362387    -0.22800
C1425       C  0.43488835  0.11899099  0.08188257    -0.05900
H1426       H  0.43824765  0.18470926  0.05970300     0.14800
C1427       C  0.48062266  0.22020319  0.10757840    -0.16100
H1428       H  0.47702109  0.15412885  0.12895393     0.09200
H1429       H  0.43124605  0.05019235  0.19156594     0.07000
H1430       H  0.43665368  0.09485518  0.19912602     0.08200
H1431       H  0.44769408  0.05887353  0.21144071     0.07300
H1432       H  0.48258383  0.09434972  0.08805386     0.02100
H1433       H  0.46705812  0.08136846  0.06703663     0.02600
H1434       H  0.47918955  0.04813581  0.08055831     0.06100
H1435       H  0.42707759  0.12993943  0.06601503     0.05100
H1436       H  0.42902010  0.11237852  0.10225596    -0.00700
H1437       H  0.43947919  0.09428069  0.07247936     0.00800
H1438       H  0.48766192  0.20961171  0.12503601     0.04500
H1439       H  0.47598703  0.24560402  0.11549616     0.06400
H1440       H  0.48746923  0.22511630  0.08819013     0.07300
C1441       C  0.41596176  0.88744608  0.33254544    -0.22300
C1442       C  0.42757238  0.87443214  0.34861262     0.09600
C1443       C  0.44103752  0.87001889  0.33510757     0.10000
C1444       C  0.44271931  0.87988309  0.30589794    -0.17300
C1445       C  0.43121970  0.89357492  0.28993667    -0.27700
C1446       C  0.41761149  0.89692567  0.30311929     0.18400
C1447       C  0.42570171  0.86580470  0.37973049     0.12300
C1448       C  0.45363515  0.85511868  0.35159476    -0.12000
H1449       H  0.45311050  0.87733410  0.29550968     0.12600
C1450       C  0.40473657  0.91040034  0.28683937    -0.22900
H1451       H  0.40562498  0.89041110  0.34305443     0.08300
C1452       C  0.42932794  0.89058184  0.40155168     0.04600
C1453       C  0.43033469  0.87912141  0.43052792    -0.20100
C1454       C  0.42810632  0.84327927  0.43797495    -0.12400
C1455       C  0.42302229  0.81936875  0.41635879     0.13300
C1456       C  0.42193997  0.83104421  0.38739208    -0.22800
C1457       C  0.43271059  0.92868199  0.39402124    -0.05900
H1458       H  0.43376409  0.89782615  0.44709452     0.14800
C1459       C  0.41862953  0.78173951  0.42343666    -0.16100
H1460       H  0.41885018  0.81252852  0.37037774     0.09200
H1461       H  0.40076716  0.93515464  0.29729205     0.07000
H1462       H  0.39612914  0.89003419  0.28746876     0.08200
H1463       H  0.40712385  0.91613386  0.26364444     0.07300
H1464       H  0.45105805  0.82796231  0.35952195     0.02100
H1465       H  0.45618049  0.87238289  0.37054833     0.02600
H1466       H  0.46334297  0.85336529  0.33764049     0.06100
H1467       H  0.43526806  0.94462137  0.41375330     0.05100
H1468       H  0.42333846  0.94099813  0.38314255    -0.00700
H1469       H  0.44206826  0.92984999  0.37909360     0.00800
H1470       H  0.41066001  0.78186888  0.44144411     0.04500
H1471       H  0.42804055  0.76564488  0.42976738     0.06400
H1472       H  0.41365249  0.76836803  0.40435362     0.07300
C1473       C  0.28655979  0.57630138  0.12003081    -0.22300
C1474       C  0.27853059  0.60398671  0.10778855     0.09600
C1475       C  0.27118430  0.59854803  0.08133369     0.10000
C1476       C  0.27219166  0.56546584  0.06740883    -0.17300
C1477       C  0.28060399  0.53807408  0.07910370    -0.27700
C1478       C  0.28771229  0.54328066  0.10597289     0.18400
C1479       C  0.27844385  0.63896281  0.12242446     0.12300
C1480       C  0.26253230  0.62786751  0.06759618    -0.12000
H1481       H  0.26683019  0.56137411  0.04669724     0.12600
C1482       C  0.29638385  0.51459325  0.12055921    -0.22900
H1483       H  0.29209709  0.58066005  0.14050664     0.08300
C1484       C  0.26867900  0.64679025  0.14498775     0.04600
C1485       C  0.26921634  0.68024977  0.15844718    -0.20100
C1486       C  0.27949180  0.70565807  0.15019894    -0.12400
C1487       C  0.28914205  0.69789704  0.12729520     0.13300
C1488       C  0.28843073  0.66460039  0.11354256    -0.22800
C1489       C  0.25785865  0.61969484  0.15503751    -0.05900
H1490       H  0.26191818  0.68614750  0.17623025     0.14800
C1491       C  0.29997457  0.72479336  0.11692370    -0.16100
H1492       H  0.29579393  0.65829827  0.09597525     0.09200
H1493       H  0.29199950  0.50948273  0.14270714     0.07000
H1494       H  0.30767308  0.52346711  0.12261905     0.08200
H1495       H  0.29621929  0.48904173  0.10850128     0.07300
H1496       H  0.26955919  0.65093374  0.06270429     0.02100
H1497       H  0.25392632  0.63639213  0.08279250     0.02600
H1498       H  0.25747165  0.61912820  0.04687618     0.06100
H1499       H  0.25102518  0.63017098  0.17294452     0.05100
H1500       H  0.26344924  0.59563614  0.16318014    -0.00700
H1501       H  0.25080687  0.61212900  0.13657342     0.00800
H1502       H  0.30606474  0.71494363  0.09771350     0.04500
H1503       H  0.30780144  0.73059245  0.13446723     0.06400
H1504       H  0.29444511  0.74971648  0.11051517     0.07300
C1505       C  0.25740118  0.94973605  0.27882276    -0.22300
C1506       C  0.24750280  0.96880604  0.26220060     0.09600
C1507       C  0.23932039  0.95111327  0.24068031     0.10000
C1508       C  0.24281441  0.91601511  0.23325271    -0.17300
C1509       C  0.25414151  0.89868548  0.24725975    -0.27700
C1510       C  0.26039937  0.91428669  0.27232381     0.18400
C1511       C  0.24668417  0.00765325  0.26599711     0.12300
C1512       C  0.22731257  0.96959869  0.22486028    -0.12000
H1513       H  0.23775468  0.90367510  0.21453119     0.12600
C1514       C  0.27097520  0.89480543  0.29134493    -0.22900
H1515       H  0.26335410  0.96298274  0.29596536     0.08300
C1516       C  0.24119483  0.02303730  0.29171537     0.04600
C1517       C  0.23942400  0.05988671  0.29281653    -0.20100
C1518       C  0.24236051  0.08122449  0.26841819    -0.12400
C1519       C  0.24871661  0.06623119  0.24345675     0.13300
C1520       C  0.25113765  0.02951439  0.24280762    -0.22800
C1521       C  0.23618312  0.00065257  0.31705461    -0.05900
H1522       H  0.23445748  0.07165173  0.31187806     0.14800
C1523       C  0.25253917  0.08808364  0.21704808    -0.16100
H1524       H  0.25579908  0.01758041  0.22344636     0.09200
H1525       H  0.26733694  0.89581064  0.31441691     0.07000
H1526       H  0.28166886  0.90757434  0.28970801     0.08200
H1527       H  0.27195626  0.86633089  0.28528158     0.07300
H1528       H  0.23147918  0.99224875  0.21190427     0.02100
H1529       H  0.21936064  0.97954292  0.24094498     0.02600
H1530       H  0.22171634  0.95131271  0.20962232     0.06100
H1531       H  0.23134820  0.01717647  0.33459210     0.05100
H1532       H  0.24530984  0.98599472  0.32668361    -0.00700
H1533       H  0.22796459  0.98139061  0.30953129     0.00800
H1534       H  0.26414360  0.08521667  0.21234955     0.04500
H1535       H  0.25027154  0.11679208  0.22020442     0.06400
H1536       H  0.24635360  0.07854949  0.19791133     0.07300
C1537       C  0.22848516  0.94501658  0.05926930    -0.22300
C1538       C  0.24339131  0.94184549  0.05737689     0.09600
C1539       C  0.25071866  0.95911477  0.03450461     0.10000
C1540       C  0.24297231  0.97934014  0.01408089    -0.17300
C1541       C  0.22795768  0.98278106  0.01576021    -0.27700
C1542       C  0.22065198  0.96518621  0.03892600     0.18400
C1543       C  0.25111254  0.92141147  0.08033941     0.12300
C1544       C  0.26674586  0.95637908  0.03183676    -0.12000
H1545       H  0.24873579  0.99240290  0.99656623     0.12600
C1546       C  0.20468843  0.96814119  0.04316658    -0.22900
H1547       H  0.22296532  0.93184961  0.07707329     0.08300
C1548       C  0.25485427  0.93731456  0.10715719     0.04600
C1549       C  0.26166537  0.91688989  0.12872973    -0.20100
C1550       C  0.26456045  0.88051550  0.12456314    -0.12400
C1551       C  0.26091421  0.86465724  0.09744418     0.13300
C1552       C  0.25434752  0.88542739  0.07562452    -0.22800
C1553       C  0.25144456  0.97578581  0.11316498    -0.05900
H1554       H  0.26424843  0.92916134  0.14948007     0.14800
C1555       C  0.26408460  0.82611669  0.09111417    -0.16100
H1556       H  0.25147900  0.87341715  0.05493065     0.09200
H1557       H  0.20160234  0.99654688  0.04513285     0.07000
H1558       H  0.20105167  0.95437572  0.06330153     0.08200
H1559       H  0.19900773  0.95563538  0.02454924     0.07300
H1560       H  0.26987654  0.92810758  0.02902836     0.02100
H1561       H  0.27187242  0.96709196  0.05184106     0.02600
H1562       H  0.27086456  0.97159127  0.01282306     0.06100
H1563       H  0.25511142  0.98415363  0.13517192     0.05100
H1564       H  0.23970302  0.98003460  0.11200061    -0.00700
H1565       H  0.25681336  0.99291653  0.09673416     0.00800
H1566       H  0.25762275  0.80871174  0.10556949     0.04500
H1567       H  0.27564646  0.82075900  0.09452469     0.06400
H1568       H  0.26142223  0.81895553  0.06823344     0.07300
C1569       C  0.29924449  0.90105834  0.38659451    -0.22300
C1570       C  0.30885812  0.87352255  0.38067761     0.09600
C1571       C  0.31683002  0.85833146  0.40357975     0.10000
C1572       C  0.31469276  0.87056249  0.43227536    -0.17300
C1573       C  0.30474754  0.89762952  0.43845845    -0.27700
C1574       C  0.29697141  0.91319218  0.41512285     0.18400
C1575       C  0.30891852  0.85867015  0.35078861     0.12300
C1576       C  0.32735834  0.82889127  0.39772198    -0.12000
H1577       H  0.32068292  0.85865897  0.44998668     0.12600
C1578       C  0.28556715  0.94093412  0.42007493    -0.22900
H1579       H  0.29303368  0.91209219  0.36879593     0.08300
C1580       C  0.29862337  0.83315899  0.34263506     0.04600
C1581       C  0.29746254  0.82328012  0.31332156    -0.20100
C1582       C  0.30619012  0.83865110  0.29171381    -0.12400
C1583       C  0.31692529  0.86322265  0.30005969     0.13300
C1584       C  0.31813951  0.87298668  0.32963766    -0.22800
C1585       C  0.28854787  0.81711843  0.36477080    -0.05900
H1586       H  0.28923208  0.80441264  0.30708469     0.14800
C1587       C  0.32722667  0.87870212  0.27814495    -0.16100
H1588       H  0.32602343  0.89256508  0.33620450     0.09200
H1589       H  0.27984951  0.94782725  0.39960887     0.07000
H1590       H  0.29041440  0.96580270  0.42857566     0.08200
H1591       H  0.27753231  0.93061395  0.43580272     0.07300
H1592       H  0.33570540  0.83837264  0.38229982     0.02100
H1593       H  0.32176507  0.80569981  0.38799451     0.02600
H1594       H  0.33272440  0.81995730  0.41804351     0.06100
H1595       H  0.28117397  0.79747849  0.35467151     0.05100
H1596       H  0.28195476  0.83831023  0.37497012    -0.00700
H1597       H  0.29475613  0.80327919  0.38197429     0.00800
H1598       H  0.32141117  0.89557648  0.26226768     0.04500
H1599       H  0.33283421  0.85692867  0.26639224     0.06400
H1600       H  0.33545012  0.89559826  0.28882896     0.07300
C1601       C  0.35039820  0.87080808  0.15140604    -0.22300
C1602       C  0.36047689  0.86476475  0.17346486     0.09600
C1603       C  0.35685942  0.84211856  0.19690690     0.10000
C1604       C  0.34305949  0.82727654  0.19846843    -0.17300
C1605       C  0.33258528  0.83482415  0.17734010    -0.27700
C1606       C  0.33649233  0.85627895  0.15301808     0.18400
C1607       C  0.37483105  0.88209670  0.17188965     0.12300
C1608       C  0.36753118  0.83411692  0.22061945    -0.12000
H1609       H  0.34023304  0.81116296  0.21721651     0.12600
C1610       C  0.32618371  0.86385865  0.12851386    -0.22900
H1611       H  0.35335125  0.88760498  0.13314567     0.08300
C1612       C  0.38627604  0.86611163  0.15681965     0.04600
C1613       C  0.40014203  0.88019424  0.15972091    -0.20100
C1614       C  0.40304679  0.90993966  0.17767815    -0.12400
C1615       C  0.39120831  0.92783848  0.19063308     0.13300
C1616       C  0.37731402  0.91349452  0.18765598    -0.22800
C1617       C  0.38392177  0.83330593  0.13854491    -0.05900
H1618       H  0.40887280  0.86658060  0.14887401     0.14800
C1619       C  0.39295280  0.96159819  0.20801734    -0.16100
H1620       H  0.36836913  0.92607116  0.19866169     0.09200
H1621       H  0.33149111  0.87807069  0.11020602     0.07000
H1622       H  0.31731372  0.88103039  0.13626116     0.08200
H1623       H  0.32182247  0.83849716  0.11983653     0.07300
H1624       H  0.37073181  0.85913019  0.23172436     0.02100
H1625       H  0.37716255  0.82136812  0.21100598     0.02600
H1626       H  0.36303870  0.81584603  0.23732786     0.06100
H1627       H  0.39401050  0.82386222  0.12830607     0.05100
H1628       H  0.37617149  0.83923524  0.12087149    -0.00700
H1629       H  0.37961325  0.81152760  0.15235674     0.00800
H1630       H  0.38247206  0.97254085  0.21513205     0.04500
H1631       H  0.39831460  0.98210640  0.19442266     0.06400
H1632       H  0.39930781  0.95656959  0.22796299     0.07300
C1633       C  0.50777818  0.80476725  0.05340859    -0.22300
C1634       C  0.49285671  0.80130671  0.05418460     0.09600
C1635       C  0.48607187  0.77790919  0.03458192     0.10000
C1636       C  0.49439240  0.75805961  0.01485442    -0.17300
C1637       C  0.50944122  0.76113689  0.01388617    -0.27700
C1638       C  0.51618380  0.78523491  0.03351661     0.18400
C1639       C  0.48462353  0.82143351  0.07655427     0.12300
C1640       C  0.47002564  0.77393231  0.03450994    -0.12000
H1641       H  0.48901737  0.74016040  0.99992040     0.12600
C1642       C  0.53218195  0.79044463  0.03421981    -0.22900
H1643       H  0.51287404  0.82278593  0.06867555     0.08300
C1644       C  0.48203017  0.80688866  0.10441829     0.04600
C1645       C  0.47460119  0.82704572  0.12528948    -0.20100
C1646       C  0.46998650  0.86192449  0.11938361    -0.12400
C1647       C  0.47250679  0.87641872  0.09131600     0.13300
C1648       C  0.47969153  0.85580902  0.07014973    -0.22800
C1649       C  0.48743634  0.77041015  0.11239011    -0.05900
H1650       H  0.47295194  0.81598029  0.14687681     0.14800
C1651       C  0.46748432  0.91321947  0.08341563    -0.16100
H1652       H  0.48169694  0.86673339  0.04864139     0.09200
H1653       H  0.53548612  0.80891493  0.05190315     0.07000
H1654       H  0.53589593  0.80208067  0.01328223     0.08200
H1655       H  0.53760759  0.76465392  0.03807710     0.07300
H1656       H  0.46498033  0.80000914  0.02975992     0.02100
H1657       H  0.46628301  0.76441955  0.05613880     0.02600
H1658       H  0.46639197  0.75459930  0.01774551     0.06100
H1659       H  0.48458590  0.76315987  0.13517555     0.05100
H1660       H  0.49927466  0.76965496  0.11035542    -0.00700
H1661       H  0.48271830  0.75019121  0.09760454     0.00800
H1662       H  0.47317695  0.93338996  0.09673204     0.04500
H1663       H  0.45578025  0.91540467  0.08724707     0.06400
H1664       H  0.46959962  0.91939080  0.06009962     0.07300
C1665       C  0.49245096  0.53414329  0.99402792    -0.22300
C1666       C  0.49989885  0.50797778  0.97813258     0.09600
C1667       C  0.51090992  0.51783087  0.95883933     0.10000
C1668       C  0.51448916  0.55365611  0.95632579    -0.17300
C1669       C  0.50730516  0.57988322  0.97244923    -0.27700
C1670       C  0.49616152  0.57027225  0.99154893     0.18400
C1671       C  0.49647412  0.47020634  0.98279801     0.12300
C1672       C  0.51926416  0.49048657  0.94179798    -0.12000
H1673       H  0.52340399  0.56112514  0.94253320     0.12600
C1674       C  0.48872904  0.59773949  0.01000226    -0.22900
H1675       H  0.48403096  0.52611750  0.00894240     0.08300
C1676       C  0.50140726  0.45188659  0.00766213     0.04600
C1677       C  0.49693107  0.41679399  0.01231588    -0.20100
C1678       C  0.48766405  0.40000301  0.99257085    -0.12400
C1679       C  0.48423725  0.41700261  0.96593251     0.13300
C1680       C  0.48846813  0.45226022  0.96162638    -0.22800
C1681       C  0.51106906  0.46968289  0.02954212    -0.05900
H1682       H  0.49965167  0.40366956  0.03262183     0.14800
C1683       C  0.47583634  0.39889278  0.94207273    -0.16100
H1684       H  0.48528391  0.46606014  0.94190409     0.09200
H1685       H  0.48034107  0.58561081  0.02403711     0.07000
H1686       H  0.48358853  0.61783792  0.99572656     0.08200
H1687       H  0.49663606  0.61117404  0.02434214     0.07300
H1688       H  0.51200211  0.47577755  0.92692641     0.02100
H1689       H  0.52440452  0.47145791  0.95703695     0.02600
H1690       H  0.52779759  0.50290696  0.92830927     0.06100
H1691       H  0.51403071  0.45138496  0.04756280     0.05100
H1692       H  0.50562214  0.49313963  0.03917365    -0.00700
H1693       H  0.52106501  0.47849564  0.01857554     0.00800
H1694       H  0.46542474  0.41259982  0.93901751     0.04500
H1695       H  0.47380757  0.37039023  0.94676737     0.06400
H1696       H  0.48197814  0.40014438  0.92132366     0.07300
C1697       C  0.50612656  0.60959213  0.82383683    -0.22300
C1698       C  0.50552185  0.57244062  0.82598169     0.09600
C1699       C  0.51194015  0.55568920  0.85017481     0.10000
C1700       C  0.51837513  0.57647744  0.87212269    -0.17300
C1701       C  0.51844439  0.61397806  0.87096901    -0.27700
C1702       C  0.51242734  0.63061881  0.84589639     0.18400
C1703       C  0.49787794  0.55161790  0.80294842     0.12300
C1704       C  0.51184062  0.51577647  0.85299996    -0.12000
H1705       H  0.52299721  0.56313398  0.89075978     0.12600
C1706       C  0.51260438  0.67040806  0.84181160    -0.22900
H1707       H  0.50134350  0.62225984  0.80498653     0.08300
C1708       C  0.48318441  0.54335529  0.80542142     0.04600
C1709       C  0.47644232  0.52326181  0.78340432    -0.20100
C1710       C  0.48400857  0.51066960  0.75884762    -0.12400
C1711       C  0.49872174  0.51986191  0.75613437     0.13300
C1712       C  0.50541481  0.54011362  0.77820120    -0.22800
C1713       C  0.47459836  0.55587779  0.83132185    -0.05900
H1714       H  0.46516743  0.51712514  0.78557347     0.14800
C1715       C  0.50738615  0.50963237  0.72966121    -0.16100
H1716       H  0.51664040  0.54699480  0.77620484     0.09200
H1717       H  0.50851297  0.67821629  0.81999240     0.07000
H1718       H  0.52372986  0.68054642  0.84371518     0.08200
H1719       H  0.50563789  0.68339938  0.85828968     0.07300
H1720       H  0.51742651  0.50371822  0.83402055     0.02100
H1721       H  0.50065626  0.50586111  0.85370834     0.02600
H1722       H  0.51732147  0.50683603  0.87318334     0.06100
H1723       H  0.46325202  0.54721514  0.82994838     0.05100
H1724       H  0.47481319  0.58536897  0.83239105    -0.00700
H1725       H  0.47919167  0.54493149  0.85174127     0.00800
H1726       H  0.51832407  0.52119762  0.73032741     0.04500
H1727       H  0.50205462  0.51953801  0.70961077     0.06400
H1728       H  0.50856533  0.48031481  0.72853604     0.07300
C1729       C  0.62839391  0.58084650  0.94463896    -0.22300
C1730       C  0.62609852  0.60648338  0.92296800     0.09600
C1731       C  0.63737871  0.61548675  0.90392685     0.10000
C1732       C  0.65092898  0.59997474  0.90794597    -0.17300
C1733       C  0.65363668  0.57603637  0.93098776    -0.27700
C1734       C  0.64198060  0.56560543  0.94907646     0.18400
C1735       C  0.61208036  0.62526696  0.92225180     0.12300
C1736       C  0.63523965  0.64244429  0.88004393    -0.12000
H1737       H  0.65965687  0.60802878  0.89380765     0.12600
C1738       C  0.64379724  0.54017450  0.97421977    -0.22900
H1739       H  0.61960244  0.57392596  0.95903286     0.08300
C1740       C  0.60031478  0.61164909  0.90670361     0.04600
C1741       C  0.58687874  0.62805917  0.90960486    -0.20100
C1742       C  0.58467520  0.65729318  0.92850009    -0.12400
C1743       C  0.59678831  0.67203223  0.94287447     0.13300
C1744       C  0.61029764  0.65589603  0.93935187    -0.22800
C1745       C  0.60182001  0.57895886  0.88791885    -0.05900
H1746       H  0.57786044  0.61662152  0.89808867     0.14800
C1747       C  0.59563019  0.70357146  0.96305130    -0.16100
H1748       H  0.61946451  0.66629492  0.95106833     0.09200
H1749       H  0.63355884  0.53545732  0.98596008     0.07000
H1750       H  0.65152648  0.55122255  0.99022771     0.08200
H1751       H  0.64764002  0.51408544  0.96601668     0.07300
H1752       H  0.63202194  0.66833995  0.88966856     0.02100
H1753       H  0.62674680  0.63323281  0.86492395     0.02600
H1754       H  0.64517373  0.64666724  0.86715310     0.06100
H1755       H  0.59154216  0.57158135  0.87737382     0.05100
H1756       H  0.60536931  0.55616114  0.90146931    -0.00700
H1757       H  0.60983403  0.58378419  0.87047022     0.00800
H1758       H  0.58864193  0.69695796  0.98190594     0.04500
H1759       H  0.59122238  0.72670870  0.95102425     0.06400
H1760       H  0.60621851  0.71154255  0.97190551     0.07300
C1761       C  0.73056693  0.44216905  0.06374513    -0.22300
C1762       C  0.74551056  0.44004856  0.06163675     0.09600
C1763       C  0.75249090  0.45792674  0.03856126     0.10000
C1764       C  0.74439046  0.47789000  0.01841757    -0.17300
C1765       C  0.72934222  0.48007290  0.02028912    -0.27700
C1766       C  0.72239360  0.46167701  0.04345021     0.18400
C1767       C  0.75354615  0.41936308  0.08420267     0.12300
C1768       C  0.76849121  0.45561834  0.03504575    -0.12000
H1769       H  0.74987394  0.49149411  0.00080289     0.12600
C1770       C  0.70641952  0.46322789  0.04767683    -0.22900
H1771       H  0.72526238  0.42849397  0.08156286     0.08300
C1772       C  0.75862063  0.43562151  0.10997043     0.04600
C1773       C  0.76535993  0.41480590  0.13147867    -0.20100
C1774       C  0.76689051  0.37769517  0.12843563    -0.12400
C1775       C  0.76197464  0.36151380  0.10229020     0.13300
C1776       C  0.75546015  0.38258870  0.08051878    -0.22800
C1777       C  0.75653672  0.47485136  0.11518182    -0.05900
H1778       H  0.76893078  0.42750760  0.15142081     0.14800
C1779       C  0.76372448  0.32222326  0.09689763    -0.16100
H1780       H  0.75157230  0.37021055  0.06069020     0.09200
H1781       H  0.70298359  0.44938344  0.06792145     0.07000
H1782       H  0.70092247  0.45013542  0.02910730     0.08200
H1783       H  0.70298397  0.49134682  0.04937248     0.07300
H1784       H  0.77169230  0.42741602  0.03208941     0.02100
H1785       H  0.77387385  0.46645111  0.05469917     0.02600
H1786       H  0.77228967  0.47089648  0.01579301     0.06100
H1787       H  0.76100384  0.48334371  0.13652989     0.05100
H1788       H  0.74493793  0.48123615  0.11507123    -0.00700
H1789       H  0.76195949  0.49036707  0.09779726     0.00800
H1790       H  0.75715028  0.30682076  0.11261857     0.04500
H1791       H  0.77515929  0.31471717  0.09917610     0.06400
H1792       H  0.76020047  0.31463273  0.07460599     0.07300
C1793       C  0.47873363  0.75931153  0.21874994    -0.22300
C1794       C  0.49318201  0.75670780  0.22564056     0.09600
C1795       C  0.50166840  0.78764523  0.22790327     0.10000
C1796       C  0.49520725  0.82109589  0.22415575    -0.17300
C1797       C  0.48044615  0.82382203  0.21896442    -0.27700
C1798       C  0.47214665  0.79227823  0.21571942     0.18400
C1799       C  0.49872671  0.72096312  0.23189917     0.12300
C1800       C  0.51736946  0.78526111  0.23491039    -0.12000
H1801       H  0.50157184  0.84508316  0.22611090     0.12600
C1802       C  0.45634499  0.79246138  0.20868426    -0.22900
H1803       H  0.47247106  0.73513993  0.21664006     0.08300
C1804       C  0.49507176  0.70342963  0.25810673     0.04600
C1805       C  0.50002248  0.66886740  0.26282156    -0.20100
C1806       C  0.50877011  0.65192673  0.24221476    -0.12400
C1807       C  0.51181696  0.66885906  0.21531963     0.13300
C1808       C  0.50672814  0.70332762  0.21050322    -0.22800
C1809       C  0.48651965  0.72176118  0.28166064    -0.05900
H1810       H  0.49800606  0.65615982  0.28367602     0.14800
C1811       C  0.52050293  0.65141763  0.19149641    -0.16100
H1812       H  0.50906312  0.71660397  0.19003483     0.09200
H1813       H  0.45014581  0.80416782  0.22697952     0.07000
H1814       H  0.45208826  0.76518904  0.20524013     0.08200
H1815       H  0.45439972  0.80749529  0.18832758     0.07300
H1816       H  0.52297766  0.76993753  0.21762483     0.02100
H1817       H  0.51883949  0.77168244  0.25620618     0.02600
H1818       H  0.52238836  0.81199193  0.23629748     0.06100
H1819       H  0.48516248  0.70463502  0.30121711     0.05100
H1820       H  0.47570308  0.72854662  0.27343711    -0.00700
H1821       H  0.49209085  0.74647718  0.28852268     0.00800
H1822       H  0.51427708  0.65141499  0.17087785     0.04500
H1823       H  0.52319753  0.62334957  0.19645122     0.06400
H1824       H  0.53058687  0.66649965  0.18802445     0.07300
C1825       C  0.51091677  0.68411889  0.37796722    -0.22300
C1826       C  0.50210192  0.66556004  0.39744668     0.09600
C1827       C  0.50149291  0.62815034  0.39575847     0.10000
C1828       C  0.50968921  0.61018264  0.37453874    -0.17300
C1829       C  0.51846757  0.62860488  0.35446683    -0.27700
C1830       C  0.51904922  0.66643443  0.35651271     0.18400
C1831       C  0.49375416  0.68608706  0.41956983     0.12300
C1832       C  0.49218654  0.60718033  0.41639462    -0.12000
H1833       H  0.50898060  0.58146343  0.37335930     0.12600
C1834       C  0.52781449  0.68895791  0.33591887    -0.22900
H1835       H  0.51127644  0.71288592  0.37939588     0.08300
C1836       C  0.50046296  0.70130512  0.44414619     0.04600
C1837       C  0.49234936  0.72161962  0.46389971    -0.20100
C1838       C  0.47759239  0.72741368  0.45985202    -0.12400
C1839       C  0.47086606  0.71203163  0.43510621     0.13300
C1840       C  0.47904100  0.69157140  0.41536240    -0.22800
C1841       C  0.51620630  0.69591405  0.44965926    -0.05900
H1842       H  0.49762088  0.73304205  0.48276301     0.14800
C1843       C  0.45527771  0.71826284  0.42856387    -0.16100
H1844       H  0.47398419  0.68018973  0.39623597     0.09200
H1845       H  0.53930429  0.68180548  0.33771832     0.07000
H1846       H  0.52688220  0.71776131  0.34096732     0.08200
H1847       H  0.52403288  0.68514926  0.31316715     0.07300
H1848       H  0.48081144  0.61486479  0.41349530     0.02100
H1849       H  0.49544453  0.61262252  0.43925893     0.02600
H1850       H  0.49307026  0.57811282  0.41248123     0.06100
H1851       H  0.51970052  0.70888407  0.47023652     0.05100
H1852       H  0.52255593  0.70749143  0.43151316    -0.00700
H1853       H  0.51855326  0.66704847  0.45133235     0.00800
H1854       H  0.45321369  0.74726948  0.42704676     0.04500
H1855       H  0.44850975  0.70641529  0.44594453     0.06400
H1856       H  0.45204967  0.70595565  0.40753422     0.07300
C1857       C  0.51415114  0.43068435  0.17578856    -0.22300
C1858       C  0.49960879  0.43772000  0.17107849     0.09600
C1859       C  0.49281439  0.46431616  0.18771080     0.10000
C1860       C  0.50077011  0.48392384  0.20815261    -0.17300
C1861       C  0.51547226  0.47753984  0.21295979    -0.27700
C1862       C  0.52217230  0.44992106  0.19658202     0.18400
C1863       C  0.49170311  0.41759302  0.14814877     0.12300
C1864       C  0.47709035  0.47190971  0.18394792    -0.12000
H1865       H  0.49532841  0.50440331  0.22054673     0.12600
C1866       C  0.53769020  0.44020032  0.20058204    -0.22900
H1867       H  0.51925704  0.41002047  0.16297459     0.08300
C1868       C  0.49054624  0.43076757  0.11941976     0.04600
C1869       C  0.48261744  0.41160179  0.09861589    -0.20100
C1870       C  0.47606153  0.37899349  0.10555565    -0.12400
C1871       C  0.47724949  0.36577480  0.13439003     0.13300
C1872       C  0.48496271  0.38540074  0.15538159    -0.22800
C1873       C  0.49789141  0.46479626  0.11060949    -0.05900
H1874       H  0.48195322  0.42155964  0.07645879     0.14800
C1875       C  0.47013351  0.33151199  0.14330232    -0.16100
H1876       H  0.48578702  0.37557853  0.17754735     0.09200
H1877       H  0.54458941  0.46344693  0.19568248     0.07000
H1878       H  0.54100271  0.41827821  0.18578447     0.08200
H1879       H  0.53952730  0.43107808  0.22330535     0.07300
H1880       H  0.47079525  0.44758523  0.18887933     0.02100
H1881       H  0.47489951  0.48027098  0.16117518     0.02600
H1882       H  0.47337915  0.49342249  0.19875012     0.06100
H1883       H  0.49579590  0.47148936  0.08742965     0.05100
H1884       H  0.50963061  0.46205313  0.11356973    -0.00700
H1885       H  0.49397269  0.48718633  0.12421676     0.00800
H1886       H  0.47492253  0.30890849  0.13121619     0.04500
H1887       H  0.45849412  0.33291378  0.13859235     0.06400
H1888       H  0.47147241  0.32617641  0.16697921     0.07300
C1889       C  0.55262089  0.65846533  0.09559784    -0.22300
C1890       C  0.56400024  0.63528700  0.10103614     0.09600
C1891       C  0.57243352  0.62291532  0.07758596     0.10000
C1892       C  0.56909238  0.63361960  0.04899321    -0.17300
C1893       C  0.55732828  0.65585792  0.04332990    -0.27700
C1894       C  0.54889761  0.66823439  0.06711400     0.18400
C1895       C  0.56494396  0.61955868  0.13058276     0.12300
C1896       C  0.58478877  0.59806045  0.08278332    -0.12000
H1897       H  0.57553829  0.62408944  0.03091566     0.12600
C1898       C  0.53523577  0.68927007  0.06369803    -0.22900
H1899       H  0.54593348  0.66700974  0.11367767     0.08300
C1900       C  0.57088909  0.63792272  0.15447812     0.04600
C1901       C  0.56923641  0.62393194  0.18276877    -0.20100
C1902       C  0.56162496  0.59210143  0.18772187    -0.12400
C1903       C  0.55600262  0.57336755  0.16325219     0.13300
C1904       C  0.55786734  0.58732255  0.13517466    -0.22800
C1905       C  0.57876844  0.67243532  0.15007044    -0.05900
H1906       H  0.57361852  0.63843248  0.20114707     0.14800
C1907       C  0.54737349  0.53958841  0.16613534    -0.16100
H1908       H  0.55318941  0.57376859  0.11658670     0.09200
H1909       H  0.53652951  0.71577519  0.07404622     0.07000
H1910       H  0.52636108  0.67506868  0.07489162     0.08200
H1911       H  0.53178996  0.69290360  0.04085498     0.07300
H1912       H  0.58087815  0.57300543  0.09281465     0.02100
H1913       H  0.59261776  0.61083300  0.09768525     0.02600
H1914       H  0.59039519  0.59121379  0.06213529     0.06100
H1915       H  0.58288015  0.68328981  0.17099326     0.05100
H1916       H  0.57149751  0.69247401  0.14030428    -0.00700
H1917       H  0.58800650  0.66810200  0.13521305     0.00800
H1918       H  0.53786439  0.54426191  0.18020131     0.04500
H1919       H  0.55415897  0.51824691  0.17542727     0.06400
H1920       H  0.54340962  0.52986893  0.14472122     0.07300
C1921       C  0.67117977  0.61145520  0.15723256    -0.22300
C1922       C  0.68033313  0.61966027  0.13391529     0.09600
C1923       C  0.69308855  0.63879700  0.13911417     0.10000
C1924       C  0.69652780  0.64891569  0.16765799    -0.17300
C1925       C  0.68768729  0.63961913  0.19117332    -0.27700
C1926       C  0.67472744  0.62121072  0.18594905     0.18400
C1927       C  0.67733789  0.60531929  0.10449717     0.12300
C1928       C  0.70332102  0.64748375  0.11463865    -0.12000
H1929       H  0.70640205  0.66322309  0.17178897     0.12600
C1930       C  0.66450898  0.61260452  0.21044058    -0.22900
H1931       H  0.66141800  0.59675906  0.15298386     0.08300
C1932       C  0.68168818  0.57068644  0.09703391     0.04600
C1933       C  0.68226544  0.56092084  0.06759584    -0.20100
C1934       C  0.67892506  0.58520190  0.04520300    -0.12400
C1935       C  0.67295551  0.61864388  0.05309398     0.13300
C1936       C  0.67229053  0.62822506  0.08274882    -0.22800
C1937       C  0.68653387  0.54471255  0.12003544    -0.05900
H1938       H  0.68619758  0.53471184  0.06216694     0.14800
C1939       C  0.66749517  0.64475602  0.03079654    -0.16100
H1940       H  0.66866970  0.65456696  0.08891568     0.09200
H1941       H  0.66133667  0.63747169  0.22179762     0.07000
H1942       H  0.65463575  0.59949787  0.20228819     0.08200
H1943       H  0.66964959  0.59432334  0.22624891     0.07300
H1944       H  0.69792068  0.66451759  0.09824863     0.02100
H1945       H  0.70698880  0.62257009  0.10397149     0.02600
H1946       H  0.71291203  0.66196461  0.12262573     0.06100
H1947       H  0.68980334  0.51884472  0.11039328     0.05100
H1948       H  0.67765810  0.53962095  0.13562133    -0.00700
H1949       H  0.69583763  0.55576599  0.13206093     0.00800
H1950       H  0.66216176  0.66787767  0.04127645     0.04500
H1951       H  0.65951370  0.63157107  0.01646523     0.06400
H1952       H  0.67648969  0.65533567  0.01756102     0.07300
C1953       C  0.60626681  0.62670533  0.32044988    -0.22300
C1954       C  0.61706846  0.60599374  0.30800652     0.09600
C1955       C  0.61362054  0.57294768  0.29532879     0.10000
C1956       C  0.59922904  0.56234418  0.29375671    -0.17300
C1957       C  0.58809677  0.58429109  0.30413240    -0.27700
C1958       C  0.59182706  0.61659451  0.31866392     0.18400
C1959       C  0.63173614  0.62082337  0.30637347     0.12300
C1960       C  0.62508652  0.54958573  0.28237395    -0.12000
H1961       H  0.59667074  0.53747502  0.28300672     0.12600
C1962       C  0.58087436  0.64161562  0.33153886    -0.22900
H1963       H  0.60914703  0.65185115  0.33045278     0.08300
C1964       C  0.63547457  0.64578834  0.28470987     0.04600
C1965       C  0.64965471  0.65772334  0.28274892    -0.20100
C1966       C  0.66032063  0.64487680  0.30162155    -0.12400
C1967       C  0.65634074  0.62090843  0.32424925     0.13300
C1968       C  0.64206513  0.60935496  0.32630380    -0.22800
C1969       C  0.62458944  0.65896780  0.26302729    -0.05900
H1970       H  0.65251832  0.67598729  0.26541028     0.14800
C1971       C  0.66690929  0.60736718  0.34647225    -0.16100
H1972       H  0.63897686  0.59059785  0.34313474     0.09200
H1973       H  0.57409559  0.65298747  0.31401183     0.07000
H1974       H  0.58596048  0.66437413  0.34301544     0.08200
H1975       H  0.57416475  0.62730757  0.34774860     0.07300
H1976       H  0.63286807  0.54199383  0.29954728     0.02100
H1977       H  0.63078294  0.56411585  0.26474204     0.02600
H1978       H  0.62056125  0.52480609  0.27293091     0.06100
H1979       H  0.62937096  0.67786160  0.24713373     0.05100
H1980       H  0.61579773  0.67291559  0.27463983    -0.00700
H1981       H  0.62010271  0.63616219  0.25063887     0.00800
H1982       H  0.66154683  0.59181098  0.36395813     0.04500
H1983       H  0.67248702  0.63009972  0.35696364     0.06400
H1984       H  0.67480564  0.58943317  0.33596349     0.07300
C1985       C  0.72834019  0.55571930  0.39622081    -0.22300
C1986       C  0.73703063  0.57422771  0.41598548     0.09600
C1987       C  0.73830205  0.61151071  0.41314798     0.10000
C1988       C  0.73188856  0.62879215  0.38924652    -0.17300
C1989       C  0.72388075  0.60999595  0.36819291    -0.27700
C1990       C  0.72140558  0.57303805  0.37298358     0.18400
C1991       C  0.74544661  0.55354739  0.43795247     0.12300
C1992       C  0.74632512  0.63322191  0.43543476    -0.12000
H1993       H  0.73351035  0.65714788  0.38667465     0.12600
C1994       C  0.71151187  0.55116734  0.35409340    -0.22900
H1995       H  0.72729572  0.52715077  0.39849723     0.08300
C1996       C  0.73887143  0.53301805  0.46000393     0.04600
C1997       C  0.74735865  0.51135650  0.47807981    -0.20100
C1998       C  0.76239934  0.50982074  0.47529119    -0.12400
C1999       C  0.76900039  0.53183137  0.45379193     0.13300
C2000       C  0.76039717  0.55281482  0.43541108    -0.22800
C2001       C  0.72293563  0.53452205  0.46505239    -0.05900
H2002       H  0.74213116  0.49558250  0.49477634     0.14800
C2003       C  0.78489335  0.53398417  0.44829483    -0.16100
H2004       H  0.76544755  0.56827881  0.41827050     0.09200
H2005       H  0.70074436  0.56362037  0.35361023     0.07000
H2006       H  0.71019138  0.52370563  0.36260487     0.08200
H2007       H  0.71580790  0.54874000  0.33162284     0.07300
H2008       H  0.75779348  0.62573959  0.43567447     0.02100
H2009       H  0.74164696  0.62863612  0.45740904     0.02600
H2010       H  0.74569210  0.66213650  0.43068097     0.06100
H2011       H  0.71966619  0.51829597  0.48418445     0.05100
H2012       H  0.71711164  0.52416503  0.44578772    -0.00700
H2013       H  0.71964040  0.56243976  0.46918942     0.00800
H2014       H  0.78708587  0.52808213  0.42496558     0.04500
H2015       H  0.79139742  0.51544862  0.46118143     0.06400
H2016       H  0.78866779  0.56140088  0.45299503     0.07300
C2017       C  0.76025550  0.44961036  0.28024681    -0.22300
C2018       C  0.74902809  0.46622945  0.26546041     0.09600
C2019       C  0.74011726  0.44581781  0.24685373     0.10000
C2020       C  0.74408778  0.41077976  0.23995405    -0.17300
C2021       C  0.75643864  0.39587018  0.25211096    -0.27700
C2022       C  0.76349665  0.41400880  0.27506293     0.18400
C2023       C  0.74761558  0.50531948  0.26775896     0.12300
C2024       C  0.72672434  0.46117552  0.23361084    -0.12000
H2025       H  0.73838975  0.39651590  0.22300248     0.12600
C2026       C  0.77519013  0.39708303  0.29294104    -0.22900
H2027       H  0.76703233  0.46480114  0.29481116     0.08300
C2028       C  0.74466730  0.52246529  0.29454650     0.04600
C2029       C  0.74254203  0.55931110  0.29468924    -0.20100
C2030       C  0.74244756  0.57882079  0.26861857    -0.12400
C2031       C  0.74634272  0.56222754  0.24224920     0.13300
C2032       C  0.74934714  0.52573573  0.24230113    -0.22800
C2033       C  0.74265161  0.50195235  0.32255493    -0.05900
H2034       H  0.73951420  0.57236324  0.31486958     0.14800
C2035       C  0.74698810  0.58285770  0.21411967    -0.16100
H2036       H  0.75233244  0.51267718  0.22208505     0.09200
H2037       H  0.77627943  0.36828783  0.28819148     0.07000
H2038       H  0.77260157  0.39967313  0.31651274     0.08200
H2039       H  0.78556295  0.41051970  0.28856556     0.07300
H2040       H  0.72935602  0.48326063  0.21853550     0.02100
H2041       H  0.71960773  0.47117789  0.25122430     0.02600
H2042       H  0.72071541  0.44087192  0.22096169     0.06100
H2043       H  0.73956271  0.51960162  0.34091563     0.05100
H2044       H  0.75272166  0.48871083  0.32907237    -0.00700
H2045       H  0.73409458  0.48174522  0.31972377     0.00800
H2046       H  0.75050746  0.56588253  0.19560115     0.04500
H2047       H  0.73627377  0.59371707  0.20874387     0.06400
H2048       H  0.75470679  0.60515183  0.21637726     0.07300
C2049       C  0.52728552  0.39452152  0.33787757    -0.22300
C2050       C  0.53810405  0.38804298  0.35825362     0.09600
C2051       C  0.54847504  0.41444072  0.36392056     0.10000
C2052       C  0.54786090  0.44676302  0.34862443    -0.17300
C2053       C  0.53695136  0.45338842  0.32827104    -0.27700
C2054       C  0.52648429  0.42689278  0.32292554     0.18400
C2055       C  0.53821072  0.35314986  0.37311720     0.12300
C2056       C  0.56004280  0.40865060  0.38626074    -0.12000
H2057       H  0.55592281  0.46695065  0.35253476     0.12600
C2058       C  0.51480128  0.43172559  0.30058133    -0.22900
H2059       H  0.51946065  0.37388200  0.33354129     0.08300
C2060       C  0.52763584  0.34430587  0.39385363     0.04600
C2061       C  0.52742994  0.31002414  0.40568885    -0.20100
C2062       C  0.53762268  0.28442572  0.39764773    -0.12400
C2063       C  0.54826915  0.29332807  0.37686314     0.13300
C2064       C  0.54840968  0.32768188  0.36486648    -0.22800
C2065       C  0.51679110  0.37126599  0.40409553    -0.05900
H2066       H  0.51951380  0.30350172  0.42204856     0.14800
C2067       C  0.55929634  0.26718489  0.36606201    -0.16100
H2068       H  0.55636115  0.33445930  0.34852465     0.09200
H2069       H  0.50760771  0.45375802  0.30723565     0.07000
H2070       H  0.50810274  0.40747018  0.29829502     0.08200
H2071       H  0.51957775  0.43759322  0.27890351     0.07300
H2072       H  0.56682100  0.38573443  0.37980589     0.02100
H2073       H  0.55511682  0.40321030  0.40787559     0.02600
H2074       H  0.56707620  0.43232886  0.38844162     0.06100
H2075       H  0.50965141  0.36021891  0.42125695     0.05100
H2076       H  0.50997177  0.37985501  0.38561612    -0.00700
H2077       H  0.52239459  0.39475805  0.41333169     0.00800
H2078       H  0.55865980  0.26522930  0.34191404     0.04500
H2079       H  0.55775097  0.24001230  0.37480542     0.06400
H2080       H  0.57015357  0.27659790  0.37216239     0.07300
C2081       C  0.49212874  0.29779274  0.52062663    -0.22300
C2082       C  0.49681585  0.29945457  0.54965497     0.09600
C2083       C  0.50882357  0.27902668  0.55807606     0.10000
C2084       C  0.51618869  0.25855561  0.53703313    -0.17300
C2085       C  0.51151007  0.25686206  0.50791285    -0.27700
C2086       C  0.49919539  0.27645602  0.49978506     0.18400
C2087       C  0.48892549  0.32244382  0.57095449     0.12300
C2088       C  0.51370712  0.27843952  0.58938939    -0.12000
H2089       H  0.52548475  0.24324083  0.54345799     0.12600
C2090       C  0.49363414  0.27557002  0.46898010    -0.22900
H2091       H  0.48285443  0.31323607  0.51428659     0.08300
C2092       C  0.49316721  0.35777773  0.57671689     0.04600
C2093       C  0.48598957  0.37763984  0.59836692    -0.20100
C2094       C  0.47453550  0.36322137  0.61463627    -0.12400
C2095       C  0.46977904  0.32825995  0.60740685     0.13300
C2096       C  0.47706373  0.30851393  0.58579701    -0.22800
C2097       C  0.50539680  0.37440268  0.56015823    -0.05900
H2098       H  0.48975203  0.40422936  0.60327720     0.14800
C2099       C  0.45703294  0.31121250  0.62205367    -0.16100
H2100       H  0.47367297  0.28161224  0.58083167     0.09200
H2101       H  0.48425610  0.29335344  0.46611627     0.07000
H2102       H  0.49026187  0.24815982  0.46321357     0.08200
H2103       H  0.50212163  0.28439815  0.45374133     0.07300
H2104       H  0.50493083  0.26838970  0.60352988     0.02100
H2105       H  0.51667916  0.30565490  0.59653056     0.02600
H2106       H  0.52314645  0.26091294  0.59241632     0.06100
H2107       H  0.50735908  0.40226231  0.56716161     0.05100
H2108       H  0.50292046  0.37455791  0.53646728    -0.00700
H2109       H  0.51535226  0.35898086  0.56381536     0.00800
H2110       H  0.45419157  0.28541152  0.61175438     0.04500
H2111       H  0.44758016  0.32895444  0.62029324     0.06400
H2112       H  0.45939475  0.30563062  0.64531234     0.07300
C2113       C  0.51835308  0.05373202  0.33723681    -0.22300
C2114       C  0.50601481  0.06732674  0.32381187     0.09600
C2115       C  0.50156200  0.10214451  0.33096646     0.10000
C2116       C  0.50917796  0.12190709  0.35198314    -0.17300
C2117       C  0.52119593  0.10791103  0.36663436    -0.27700
C2118       C  0.52600534  0.07339305  0.35841284     0.18400
C2119       C  0.49763777  0.04438617  0.30310592     0.12300
C2120       C  0.48870768  0.11856661  0.31644351    -0.12000
H2121       H  0.50529647  0.14812495  0.35776604     0.12600
C2122       C  0.53917678  0.05682940  0.37159882    -0.22900
H2123       H  0.52181452  0.02708682  0.33162147     0.08300
C2124       C  0.50272762  0.03576145  0.27489689     0.04600
C2125       C  0.49428704  0.01452154  0.25621815    -0.20100
C2126       C  0.48073876  0.00177639  0.26477362    -0.12400
C2127       C  0.47578970  0.00984521  0.29332640     0.13300
C2128       C  0.48425644  0.03106334  0.31192340    -0.22800
C2129       C  0.51689146  0.04976928  0.26415482    -0.05900
H2130       H  0.49816489  0.00848095  0.23446152     0.14800
C2131       C  0.46193620  0.99556582  0.30550944    -0.16100
H2132       H  0.48041763  0.03703532  0.33373097     0.09200
H2133       H  0.54845366  0.07503744  0.36898458     0.07000
H2134       H  0.54194042  0.03124808  0.36085002     0.08200
H2135       H  0.53737256  0.05104727  0.39505068     0.07300
H2136       H  0.47893925  0.10304161  0.32169630     0.02100
H2137       H  0.49030692  0.11890372  0.29242677     0.02600
H2138       H  0.48691627  0.14634848  0.32383155     0.06100
H2139       H  0.51908448  0.04146535  0.24131234     0.05100
H2140       H  0.52568362  0.03952857  0.27803585    -0.00700
H2141       H  0.51687225  0.07928224  0.26494694     0.00800
H2142       H  0.46411704  0.98083609  0.32602455     0.04500
H2143       H  0.45644967  0.97687328  0.29063024     0.06400
H2144       H  0.45459289  0.01799076  0.31042418     0.07300
C2145       C  0.49561547  0.03056692  0.49298777    -0.22300
C2146       C  0.49797233  0.00701363  0.46960095     0.09600
C2147       C  0.50388854  0.02004035  0.44329956     0.10000
C2148       C  0.50764431  0.05600403  0.44144566    -0.17300
C2149       C  0.50628936  0.07881450  0.46553010    -0.27700
C2150       C  0.50013497  0.06610530  0.49159872     0.18400
C2151       C  0.49429187  0.96893513  0.47342466     0.12300
C2152       C  0.50716276  0.99588076  0.41782931    -0.12000
H2153       H  0.51262155  0.06580925  0.42165573     0.12600
C2154       C  0.49848640  0.08907330  0.51832154    -0.22900
H2155       H  0.49068416  0.02081507  0.51287267     0.08300
C2156       C  0.50095736  0.94761308  0.49491172     0.04600
C2157       C  0.49561023  0.91337283  0.50042451    -0.20100
C2158       C  0.48399110  0.89990453  0.48452275    -0.12400
C2159       C  0.47883620  0.91928766  0.46024590     0.13300
C2160       C  0.48358893  0.95411638  0.45583890    -0.22800
C2161       C  0.51351278  0.96100310  0.51239465    -0.05900
H2162       H  0.49977580  0.89833660  0.51870277     0.14800
C2163       C  0.46811477  0.90430023  0.43896559    -0.16100
H2164       H  0.47860429  0.97008113  0.43901726     0.09200
H2165       H  0.50473455  0.07748587  0.53657842     0.07000
H2166       H  0.48702757  0.09017973  0.52471281     0.08200
H2167       H  0.50222864  0.11672459  0.51471901     0.07300
H2168       H  0.49716131  0.98497665  0.40845197     0.02100
H2169       H  0.51413312  0.97370192  0.42509612     0.02600
H2170       H  0.51281717  0.01023121  0.40002961     0.06100
H2171       H  0.51784591  0.94006209  0.52699314     0.05100
H2172       H  0.51030531  0.98375355  0.52631930    -0.00700
H2173       H  0.52221249  0.96945875  0.49738468     0.00800
H2174       H  0.47248626  0.90623000  0.41646514     0.04500
H2175       H  0.45807038  0.91991568  0.44015894     0.06400
H2176       H  0.46570079  0.87583523  0.44297926     0.07300
C2177       C  0.71182424  0.81753979  0.37533692    -0.22300
C2178       C  0.70544445  0.84683016  0.36162344     0.09600
C2179       C  0.69936102  0.84296161  0.33369483     0.10000
C2180       C  0.70003495  0.80985734  0.31975847    -0.17300
C2181       C  0.70681058  0.78074501  0.33299846    -0.27700
C2182       C  0.71259081  0.78438829  0.36131995     0.18400
C2183       C  0.70542921  0.88148853  0.37678183     0.12300
C2184       C  0.69219600  0.87376240  0.31863957    -0.12000
H2185       H  0.69560425  0.80692711  0.29803218     0.12600
C2186       C  0.71919612  0.75330103  0.37706193    -0.22900
H2187       H  0.71631572  0.82079383  0.39697398     0.08300
C2188       C  0.69548277  0.88908747  0.39902067     0.04600
C2189       C  0.69624745  0.92182700  0.41353079    -0.20100
C2190       C  0.70676484  0.94719143  0.40635818    -0.12400
C2191       C  0.71641201  0.93990887  0.38315997     0.13300
C2192       C  0.71561656  0.90701350  0.36876172    -0.22800
C2193       C  0.68406609  0.86264687  0.40736579    -0.05900
H2194       H  0.68878880  0.92720168  0.43113105     0.14800
C2195       C  0.72734428  0.96668943  0.37291368    -0.16100
H2196       H  0.72305965  0.90094472  0.35127411     0.09200
H2197       H  0.72246521  0.76052571  0.39959727     0.07000
H2198       H  0.72887752  0.74402237  0.36527474     0.08200
H2199       H  0.71133298  0.73120620  0.37851327     0.07300
H2200       H  0.70002665  0.89556725  0.31516653     0.02100
H2201       H  0.68321740  0.88369624  0.33228994     0.02600
H2202       H  0.68782566  0.86598555  0.29702725     0.06100
H2203       H  0.67700807  0.87303400  0.42493730     0.05100
H2204       H  0.68908850  0.83774281  0.41531158    -0.00700
H2205       H  0.67731125  0.85655902  0.38808181     0.00800
H2206       H  0.73552124  0.97115357  0.39004665     0.04500
H2207       H  0.72197151  0.99217153  0.36749864     0.06400
H2208       H  0.73307004  0.95740874  0.35305393     0.07300
C2209       C  0.64132640  0.11524913  0.40893915    -0.22300
C2210       C  0.63074828  0.10887534  0.43000661     0.09600
C2211       C  0.63388081  0.08631822  0.45379085     0.10000
C2212       C  0.64782233  0.07283964  0.45715874    -0.17300
C2213       C  0.65878602  0.08121610  0.43723942    -0.27700
C2214       C  0.65529617  0.10169222  0.41216098     0.18400
C2215       C  0.61646362  0.12618303  0.42719005     0.12300
C2216       C  0.62250274  0.07669454  0.47578038    -0.12000
H2217       H  0.65030944  0.05700922  0.47624064     0.12600
C2218       C  0.66612817  0.10907949  0.38848124    -0.22900
H2219       H  0.63872441  0.13168475  0.39026748     0.08300
C2220       C  0.61289517  0.15691472  0.44332821     0.04600
C2221       C  0.59861846  0.16888964  0.44385933    -0.20100
C2222       C  0.58773505  0.15107745  0.42836458    -0.12400
C2223       C  0.59178332  0.12243144  0.40963781     0.13300
C2224       C  0.60605265  0.11035806  0.40953755    -0.22800
C2225       C  0.62415311  0.17674692  0.46033634    -0.05900
H2226       H  0.59587766  0.19129337  0.45765221     0.14800
C2227       C  0.58127547  0.10392190  0.38977203    -0.16100
H2228       H  0.60900287  0.08744359  0.39647897     0.09200
H2229       H  0.67465245  0.12698956  0.39665914     0.07000
H2230       H  0.66115862  0.12236709  0.36938041     0.08200
H2231       H  0.67090831  0.08370603  0.38080356     0.07300
H2232       H  0.61349431  0.06312558  0.46457753     0.02100
H2233       H  0.61841653  0.10096995  0.48673896     0.02600
H2234       H  0.62667668  0.05853763  0.49286389     0.06100
H2235       H  0.61964123  0.20042082  0.47155188     0.05100
H2236       H  0.63270684  0.18591594  0.44525547    -0.00700
H2237       H  0.62894633  0.15919815  0.47712456     0.00800
H2238       H  0.58672215  0.08518368  0.37464920     0.04500
H2239       H  0.57554642  0.12383969  0.37626535     0.06400
H2240       H  0.57352442  0.08804572  0.40269759     0.07300
C2241       C  0.72818694  0.17272538  0.34707751    -0.22300
C2242       C  0.73938566  0.15669632  0.33151804     0.09600
C2243       C  0.74285681  0.12092057  0.33733428     0.10000
C2244       C  0.73546097  0.10250674  0.35942663    -0.17300
C2245       C  0.72459111  0.11886092  0.37613921    -0.27700
C2246       C  0.72064564  0.15437822  0.36904768     0.18400
C2247       C  0.74741126  0.17822398  0.30956948     0.12300
C2248       C  0.75437002  0.10212946  0.32020362    -0.12000
H2249       H  0.73858421  0.07539646  0.36422490     0.12600
C2250       C  0.70846128  0.17338738  0.38404165    -0.22900
H2251       H  0.72547086  0.20011236  0.34222485     0.08300
C2252       C  0.74125011  0.18784931  0.28260655     0.04600
C2253       C  0.74884417  0.21023913  0.26346211    -0.20100
C2254       C  0.76264816  0.22267168  0.27021681    -0.12400
C2255       C  0.76899654  0.21206130  0.29690632     0.13300
C2256       C  0.76123271  0.19030994  0.31633265    -0.22800
C2257       C  0.72675123  0.17399510  0.27382920    -0.05900
H2258       H  0.74401847  0.21782188  0.24289223     0.14800
C2259       C  0.78370140  0.22460085  0.30557949    -0.16100
H2260       H  0.76590122  0.18294208  0.33710855     0.09200
H2261       H  0.69854254  0.15727769  0.38226372     0.07000
H2262       H  0.70630319  0.19970546  0.37398505     0.08200
H2263       H  0.71100906  0.17831561  0.40731534     0.07300
H2264       H  0.76481741  0.11555774  0.32354475     0.02100
H2265       H  0.75165954  0.10254354  0.29662127     0.02600
H2266       H  0.75553403  0.07394516  0.32703094     0.06100
H2267       H  0.72368016  0.18318117  0.25167980     0.05100
H2268       H  0.71848133  0.18340554  0.28941818    -0.00700
H2269       H  0.72688853  0.14446448  0.27372642     0.00800
H2270       H  0.78666910  0.21527455  0.32775256     0.04500
H2271       H  0.78401285  0.25406036  0.30561833     0.06400
H2272       H  0.79180937  0.21418987  0.29006071     0.07300
C2273       C  0.75944881  0.27809956  0.46315495    -0.22300
C2274       C  0.74897214  0.26165835  0.48036116     0.09600
C2275       C  0.74127473  0.28210667  0.50106345     0.10000
C2276       C  0.74555859  0.31726216  0.50663099    -0.17300
C2277       C  0.75707735  0.33235975  0.49138462    -0.27700
C2278       C  0.76304149  0.31375696  0.46738713     0.18400
C2279       C  0.74665118  0.22288979  0.47708674     0.12300
C2280       C  0.72879595  0.26676314  0.51773899    -0.12000
H2281       H  0.74076098  0.33169773  0.52464249     0.12600
C2282       C  0.77367218  0.33044510  0.44666403    -0.22900
H2283       H  0.76521836  0.26280879  0.44690618     0.08300
C2284       C  0.74161089  0.20798916  0.45074183     0.04600
C2285       C  0.73885049  0.17144699  0.44955460    -0.20100
C2286       C  0.74025361  0.14988225  0.47434359    -0.12400
C2287       C  0.74598224  0.16428359  0.50018364     0.13300
C2288       C  0.74947661  0.20054946  0.50100181    -0.22800
C2289       C  0.73813991  0.23067303  0.42453115    -0.05900
H2290       H  0.73444226  0.16018455  0.42978071     0.14800
C2291       C  0.74827672  0.14223078  0.52716734    -0.16100
H2292       H  0.75389838  0.21177818  0.52084067     0.09200
H2293       H  0.77503709  0.35938016  0.45055594     0.07000
H2294       H  0.76978681  0.32728490  0.42392088     0.08200
H2295       H  0.78422131  0.31710720  0.44872294     0.07300
H2296       H  0.73236003  0.24472744  0.53201960     0.02100
H2297       H  0.72064761  0.25669215  0.50217220     0.02600
H2298       H  0.72361788  0.28705714  0.53186131     0.06100
H2299       H  0.73341648  0.21475668  0.40656809     0.05100
H2300       H  0.74794880  0.24326282  0.41570964    -0.00700
H2301       H  0.73031631  0.25156988  0.43074685     0.00800
H2302       H  0.75973486  0.14337193  0.53349796     0.04500
H2303       H  0.74539638  0.11389326  0.52382839     0.06400
H2304       H  0.74167918  0.15295389  0.54532422     0.07300
C2305       C  0.54190652  0.83195144  0.86632460    -0.22300
C2306       C  0.53026197  0.85470670  0.87113270     0.09600
C2307       C  0.51909824  0.84388240  0.88988139     0.10000
C2308       C  0.52001239  0.81079466  0.90394019    -0.17300
C2309       C  0.53191252  0.78834988  0.89999114    -0.27700
C2310       C  0.54295906  0.79903149  0.88063674     0.18400
C2311       C  0.53001769  0.88959183  0.85599971     0.12300
C2312       C  0.50641769  0.86761118  0.89565042    -0.12000
H2313       H  0.51155903  0.80290900  0.91882952     0.12600
C2314       C  0.55573316  0.77574809  0.87439611    -0.22900
H2315       H  0.55030490  0.84026507  0.85145932     0.08300
C2316       C  0.53926538  0.91758275  0.86418892     0.04600
C2317       C  0.53941551  0.94910329  0.84774580    -0.20100
C2318       C  0.53042689  0.95342558  0.82349726    -0.12400
C2319       C  0.52101143  0.92540932  0.81554350     0.13300
C2320       C  0.52088700  0.89402577  0.83208385    -0.22800
C2321       C  0.54887642  0.91429484  0.89040728    -0.05900
H2322       H  0.54662378  0.97048093  0.85376875     0.14800
C2323       C  0.51149676  0.92649425  0.78896334    -0.16100
H2324       H  0.51392429  0.87229619  0.82567942     0.09200
H2325       H  0.56238474  0.77288554  0.89428047     0.07000
H2326       H  0.56267984  0.78724246  0.85710719     0.08200
H2327       H  0.55209573  0.74916984  0.86685615     0.07300
H2328       H  0.50051733  0.87250301  0.87505070     0.02100
H2329       H  0.51012545  0.89338485  0.90476012     0.02600
H2330       H  0.49884486  0.85547584  0.91149124     0.06100
H2331       H  0.55512590  0.93899845  0.89421888     0.05100
H2332       H  0.55656744  0.89216995  0.88719694    -0.00700
H2333       H  0.54231303  0.90899950  0.91016211     0.00800
H2334       H  0.51397131  0.90344942  0.77464848     0.04500
H2335       H  0.51284669  0.95065818  0.77553946     0.06400
H2336       H  0.50012126  0.92474275  0.79586823     0.07300
C2337       C  0.49078516  0.20299005  0.73418966    -0.22300
C2338       C  0.50015394  0.22406207  0.71762040     0.09600
C2339       C  0.51291003  0.20953696  0.70651946     0.10000
C2340       C  0.51625864  0.17437831  0.71319168    -0.17300
C2341       C  0.50796547  0.15470639  0.73320256    -0.27700
C2342       C  0.49463259  0.16840364  0.74257277     0.18400
C2343       C  0.49720942  0.26223547  0.71486165     0.12300
C2344       C  0.52371614  0.23196323  0.69025193    -0.12000
H2345       H  0.52632724  0.16360367  0.70537208     0.12600
C2346       C  0.48493930  0.14806148  0.76289740    -0.22900
H2347       H  0.48092622  0.21459622  0.74227616     0.08300
C2348       C  0.49169103  0.27663114  0.68890796     0.04600
C2349       C  0.48930508  0.31322574  0.68743387    -0.20100
C2350       C  0.49114800  0.33502124  0.71202950    -0.12400
C2351       C  0.49675042  0.32064926  0.73797251     0.13300
C2352       C  0.50002787  0.28434735  0.73888414    -0.22800
C2353       C  0.48716913  0.25318744  0.66380457    -0.05900
H2354       H  0.48462745  0.32425608  0.66784110     0.14800
C2355       C  0.49905009  0.34276031  0.76497702    -0.16100
H2356       H  0.50435138  0.27295820  0.75873759     0.09200
H2357       H  0.47493222  0.16292331  0.76764764     0.07000
H2358       H  0.49043886  0.14320270  0.78397968     0.08200
H2359       H  0.48191795  0.12231266  0.75274997     0.07300
H2360       H  0.52717225  0.25450632  0.70423525     0.02100
H2361       H  0.51909514  0.24266009  0.66985364     0.02600
H2362       H  0.53339518  0.21644085  0.68423837     0.06100
H2363       H  0.48278819  0.26894751  0.64540854     0.05100
H2364       H  0.47872495  0.23450483  0.67130540    -0.00700
H2365       H  0.49630650  0.23758459  0.65531304     0.00800
H2366       H  0.49230454  0.33234292  0.78302684     0.04500
H2367       H  0.49635206  0.37117616  0.76154116     0.06400
H2368       H  0.51046920  0.34128833  0.77153601     0.07300
C2369       C  0.49841446  0.13033901  0.89634297    -0.22300
C2370       C  0.49947620  0.16749714  0.89635829     0.09600
C2371       C  0.50803480  0.18436157  0.87509861     0.10000
C2372       C  0.51525121  0.16370376  0.85414774    -0.17300
C2373       C  0.51405513  0.12632441  0.85351623    -0.27700
C2374       C  0.50548041  0.10948166  0.87520602     0.18400
C2375       C  0.49204222  0.18818244  0.91961309     0.12300
C2376       C  0.50931358  0.22429053  0.87416476    -0.12000
H2377       H  0.52154497  0.17711017  0.83759215     0.12600
C2378       C  0.50376431  0.06964741  0.87672825    -0.22900
H2379       H  0.49193977  0.11761063  0.91298810     0.08300
C2380       C  0.47728882  0.19616092  0.91827079     0.04600
C2381       C  0.47089746  0.21605029  0.94088904    -0.20100
C2382       C  0.47896731  0.22866866  0.96466711    -0.12400
C2383       C  0.49378107  0.22029687  0.96592683     0.13300
C2384       C  0.50004714  0.20008232  0.94348610    -0.22800
C2385       C  0.46838203  0.18423351  0.89271404    -0.05900
H2386       H  0.45960505  0.22244924  0.93965929     0.14800
C2387       C  0.50307009  0.23163893  0.99116457    -0.16100
H2388       H  0.51134318  0.19362262  0.94442513     0.09200
H2389       H  0.49782058  0.05984916  0.85738408     0.07000
H2390       H  0.49759873  0.06134686  0.89632742     0.08200
H2391       H  0.51444054  0.05677998  0.87785217     0.07300
H2392       H  0.51409221  0.23417854  0.89479175     0.02100
H2393       H  0.49854713  0.23627582  0.87134336     0.02600
H2394       H  0.51619951  0.23330981  0.85581891     0.06100
H2395       H  0.45708677  0.19308065  0.89480382     0.05100
H2396       H  0.46846718  0.15476997  0.89125401    -0.00700
H2397       H  0.47283160  0.19553902  0.87223364     0.00800
H2398       H  0.51403334  0.22040844  0.98949494     0.04500
H2399       H  0.49831560  0.22224984  0.01201292     0.06400
H2400       H  0.50416784  0.26101012  0.99151644     0.07300
C2401       C  0.57028488  0.13683883  0.65364217    -0.22300
C2402       C  0.56220704  0.12113647  0.63127433     0.09600
C2403       C  0.55269921  0.09320561  0.63787000     0.10000
C2404       C  0.55138935  0.08163297  0.66668511    -0.17300
C2405       C  0.55924324  0.09732782  0.68945259    -0.27700
C2406       C  0.56889886  0.12534058  0.68281302     0.18400
C2407       C  0.56281739  0.13532838  0.60119375     0.12300
C2408       C  0.54358174  0.07619002  0.61455423    -0.12000
H2409       H  0.54374199  0.06081545  0.67155986     0.12600
C2410       C  0.57786749  0.14285279  0.70604281    -0.22900
H2411       H  0.57748405  0.15849835  0.64829562     0.08300
C2412       C  0.55358088  0.16297264  0.59261700     0.04600
C2413       C  0.55182800  0.17016158  0.56286991    -0.20100
C2414       C  0.55894700  0.15006797  0.54135109    -0.12400
C2415       C  0.56892113  0.12384227  0.55010119     0.13300
C2416       C  0.57073558  0.11684808  0.58002287    -0.22800
C2417       C  0.54507602  0.18378169  0.61481202    -0.05900
H2418       H  0.54432948  0.19065132  0.55637917     0.14800
C2419       C  0.57772083  0.10335080  0.52822805    -0.16100
H2420       H  0.57781680  0.09565446  0.58692117     0.09200
H2421       H  0.58538121  0.16267024  0.69660025     0.07000
H2422       H  0.58428905  0.12248240  0.71767563     0.08200
H2423       H  0.57089466  0.15707700  0.72180974     0.07300
H2424       H  0.55052416  0.06398720  0.59761742     0.02100
H2425       H  0.53663029  0.09654970  0.60426486     0.02600
H2426       H  0.53657124  0.05499283  0.62357311     0.06100
H2427       H  0.53826860  0.20432546  0.60435539     0.05100
H2428       H  0.55247353  0.19737352  0.63013181    -0.00700
H2429       H  0.53797963  0.16561883  0.62731377     0.00800
H2430       H  0.58374659  0.12210536  0.51407141     0.04500
H2431       H  0.57068452  0.08635452  0.51461284     0.06400
H2432       H  0.58558861  0.08565904  0.53910108     0.07300
C2433       C  0.48604231  0.88515740  0.64808410    -0.22300
C2434       C  0.48859883  0.92132129  0.64280196     0.09600
C2435       C  0.48359111  0.93685890  0.61678560     0.10000
C2436       C  0.47625030  0.91574356  0.59643834    -0.17300
C2437       C  0.47397706  0.87913615  0.60112508    -0.27700
C2438       C  0.47889153  0.86373770  0.62753217     0.18400
C2439       C  0.49654029  0.94245309  0.66487356     0.12300
C2440       C  0.48615766  0.97563855  0.61035123    -0.12000
H2441       H  0.47270070  0.92777021  0.57621561     0.12600
C2442       C  0.47651916  0.82503197  0.63450777    -0.22900
H2443       H  0.48983929  0.87357653  0.66829569     0.08300
C2444       C  0.48942111  0.95860894  0.68852215     0.04600
C2445       C  0.49734275  0.97816956  0.70898826    -0.20100
C2446       C  0.51229759  0.98207092  0.70653662    -0.12400
C2447       C  0.51940417  0.96598106  0.68254394     0.13300
C2448       C  0.51140639  0.94637169  0.66204732    -0.22800
C2449       C  0.47343937  0.95530796  0.69205730    -0.05900
H2450       H  0.49178062  0.99030940  0.72722631     0.14800
C2451       C  0.53527022  0.97016919  0.67779462    -0.16100
H2452       H  0.51675329  0.93405828  0.64361701     0.09200
H2453       H  0.48013664  0.81834924  0.65692074     0.07000
H2454       H  0.48269228  0.80811209  0.61916529     0.08200
H2455       H  0.46494515  0.81859564  0.63297158     0.07300
H2456       H  0.49783573  0.98105317  0.60970104     0.02100
H2457       H  0.48116046  0.99227576  0.62759494     0.02600
H2458       H  0.48154500  0.98358082  0.58900233     0.06100
H2459       H  0.46953261  0.96970104  0.71168925     0.05100
H2460       H  0.47044329  0.92687026  0.69431385    -0.00700
H2461       H  0.46798517  0.96660986  0.67266735     0.00800
H2462       H  0.53881887  0.95752671  0.65709404     0.04500
H2463       H  0.54123546  0.95737999  0.69586705     0.06400
H2464       H  0.53805776  0.99880347  0.67668719     0.07300
C2465       C  0.69927112  0.41155282  0.86703241    -0.22300
C2466       C  0.70812722  0.38446999  0.87773970     0.09600
C2467       C  0.71714509  0.39116143  0.90176005     0.10000
C2468       C  0.71692298  0.42476600  0.91491521    -0.17300
C2469       C  0.70775861  0.45158602  0.90483691    -0.27700
C2470       C  0.69897044  0.44517559  0.88028799     0.18400
C2471       C  0.70798688  0.34938061  0.86323959     0.12300
C2472       C  0.72664791  0.36252378  0.91408176    -0.12000
H2473       H  0.72354467  0.42973285  0.93390511     0.12600
C2474       C  0.68945397  0.47325442  0.86714653    -0.22900
H2475       H  0.69255916  0.40638756  0.84821373     0.08300
C2476       C  0.69671281  0.32498139  0.86753758     0.04600
C2477       C  0.69710238  0.29208276  0.85310348    -0.20100
C2478       C  0.70862534  0.28289157  0.83486538    -0.12400
C2479       C  0.72003172  0.30737700  0.83096421     0.13300
C2480       C  0.71948879  0.34037486  0.84512666    -0.22800
C2481       C  0.68437720  0.33354652  0.88754696    -0.05900
H2482       H  0.68835918  0.27345000  0.85602524     0.14800
C2483       C  0.73253522  0.29975736  0.81104819    -0.16100
H2484       H  0.72806117  0.35945405  0.84199659     0.09200
H2485       H  0.67811140  0.46459964  0.86858728     0.07000
H2486       H  0.69232390  0.47698505  0.84381645     0.08200
H2487       H  0.69050128  0.49947867  0.87797810     0.07300
H2488       H  0.73453722  0.35389942  0.89739698     0.02100
H2489       H  0.72004049  0.33936744  0.92080348     0.02600
H2490       H  0.73267435  0.37199102  0.93346633     0.06100
H2491       H  0.67662126  0.31120561  0.88889224     0.05100
H2492       H  0.67858798  0.35730349  0.87942166    -0.00700
H2493       H  0.68844901  0.33897523  0.90986468     0.00800
H2494       H  0.73997122  0.32274755  0.80954382     0.04500
H2495       H  0.72863208  0.29384151  0.78868798     0.06400
H2496       H  0.73875800  0.27687570  0.81951440     0.07300
C2497       C  0.67200015  0.10279062  0.66112563    -0.22300
C2498       C  0.68017445  0.11896095  0.63911493     0.09600
C2499       C  0.68928050  0.14758641  0.64608629     0.10000
C2500       C  0.69048192  0.15850340  0.67512348    -0.17300
C2501       C  0.68291108  0.14136488  0.69765621    -0.27700
C2502       C  0.67323072  0.11365476  0.69044146     0.18400
C2503       C  0.68048768  0.10349908  0.60942893     0.12300
C2504       C  0.69819676  0.16577285  0.62301107    -0.12000
H2505       H  0.69788416  0.17978514  0.68033593     0.12600
C2506       C  0.66408851  0.09571066  0.71322507    -0.22900
H2507       H  0.66498903  0.08089310  0.65542955     0.08300
C2508       C  0.68966013  0.07479322  0.60302439     0.04600
C2509       C  0.69212008  0.06546077  0.57386092    -0.20100
C2510       C  0.68574538  0.08435610  0.55084256    -0.12400
C2511       C  0.67576916  0.11162853  0.55741961     0.13300
C2512       C  0.67329341  0.12087961  0.58673662    -0.22800
C2513       C  0.69736124  0.05504826  0.62693508    -0.05900
H2514       H  0.69960982  0.04428565  0.56901888     0.14800
C2515       C  0.66760243  0.13083124  0.53386715    -0.16100
H2516       H  0.66619402  0.14277098  0.59197607     0.09200
H2517       H  0.67090857  0.08065720  0.72866871     0.07000
H2518       H  0.65647428  0.07652586  0.70328467     0.08200
H2519       H  0.65775184  0.11593217  0.72530553     0.07300
H2520       H  0.69110651  0.17783014  0.60632823     0.02100
H2521       H  0.70538976  0.14616909  0.61234730     0.02600
H2522       H  0.70494476  0.18728252  0.63233709     0.06100
H2523       H  0.70426850  0.03354051  0.61809941     0.05100
H2524       H  0.68944553  0.04276176  0.64195430    -0.00700
H2525       H  0.70425235  0.07368718  0.63941880     0.00800
H2526       H  0.65954096  0.14934457  0.54319639     0.04500
H2527       H  0.66185596  0.11128776  0.51996555     0.06400
H2528       H  0.67501478  0.14684576  0.52025320     0.07300
C2529       C  0.60189590  0.12346184  0.82549909    -0.22300
C2530       C  0.61285381  0.10824824  0.80890648     0.09600
C2531       C  0.60988305  0.07805564  0.79164695     0.10000
C2532       C  0.59573408  0.06540754  0.78967699    -0.17300
C2533       C  0.58437293  0.08214407  0.80462444    -0.27700
C2534       C  0.58772444  0.11100719  0.82371542     0.18400
C2535       C  0.62720688  0.12539369  0.80898706     0.12300
C2536       C  0.62164671  0.05935175  0.77513832    -0.12000
H2537       H  0.59350474  0.04314261  0.77536683     0.12600
C2538       C  0.57658381  0.12976582  0.84197373    -0.22900
H2539       H  0.60438848  0.14620276  0.83914325     0.08300
C2540       C  0.63138497  0.14900469  0.78661266     0.04600
C2541       C  0.64535979  0.16282742  0.78644341    -0.20100
C2542       C  0.65531846  0.15393793  0.80828128    -0.12400
C2543       C  0.65066620  0.13242135  0.83199025     0.13300
C2544       C  0.63667765  0.11842325  0.83193409    -0.22800
C2545       C  0.62108815  0.15960308  0.76286297    -0.05900
H2546       H  0.64868433  0.17943238  0.76833556     0.14800
C2547       C  0.66022495  0.12427393  0.85760688    -0.16100
H2548       H  0.63318922  0.10126150  0.84956811     0.09200
H2549       H  0.56906064  0.14457916  0.82776545     0.07000
H2550       H  0.58145761  0.14951472  0.85702346     0.08200
H2551       H  0.57069133  0.11014659  0.85554174     0.07300
H2552       H  0.62989252  0.04986471  0.79070589     0.02100
H2553       H  0.62673505  0.07772811  0.75929050     0.02600
H2554       H  0.61754114  0.03600819  0.76286238     0.06100
H2555       H  0.62602874  0.17856342  0.74722961     0.05100
H2556       H  0.61157347  0.17262053  0.77271593    -0.00700
H2557       H  0.61755802  0.13588251  0.75041012     0.00800
H2558       H  0.65431165  0.11029081  0.87525356     0.04500
H2559       H  0.66452719  0.14940438  0.86684296     0.06400
H2560       H  0.66915309  0.10668133  0.85085258     0.07300
C2561       C  0.75273783  0.27895492  0.70163873    -0.22300
C2562       C  0.74515054  0.29294286  0.67797314     0.09600
C2563       C  0.73025543  0.28694258  0.67611996     0.10000
C2564       C  0.72329532  0.26704406  0.69801594    -0.17300
C2565       C  0.73089649  0.25234562  0.72160972    -0.27700
C2566       C  0.74588019  0.25871728  0.72341114     0.18400
C2567       C  0.75313586  0.31305445  0.65506954     0.12300
C2568       C  0.72174198  0.30133072  0.65088292    -0.12000
H2569       H  0.71187524  0.26237891  0.69637594     0.12600
C2570       C  0.75476411  0.24512430  0.74847164    -0.22900
H2571       H  0.76416097  0.28376878  0.70294085     0.08300
C2572       C  0.75536325  0.35008584  0.65706733     0.04600
C2573       C  0.76277482  0.36790452  0.63461152    -0.20100
C2574       C  0.76818239  0.34962684  0.61008706    -0.12400
C2575       C  0.76614181  0.31215879  0.60853838     0.13300
C2576       C  0.75870138  0.29451967  0.63106863    -0.22800
C2577       C  0.74978517  0.37082462  0.68280913    -0.05900
H2578       H  0.76417769  0.39646524  0.63605771     0.14800
C2579       C  0.77115600  0.29054198  0.58273697    -0.16100
H2580       H  0.75700036  0.26604133  0.62978193     0.09200
H2581       H  0.75017568  0.25442739  0.76948140     0.07000
H2582       H  0.76598884  0.25477195  0.74725555     0.08200
H2583       H  0.75512182  0.21564271  0.74807772     0.07300
H2584       H  0.72591649  0.29019604  0.63009888     0.02100
H2585       H  0.72262078  0.33075473  0.65026321     0.02600
H2586       H  0.71022953  0.29425337  0.65265774     0.06100
H2587       H  0.75239550  0.39956437  0.68104167     0.05100
H2588       H  0.75464208  0.36052540  0.70321444    -0.00700
H2589       H  0.73797508  0.36810028  0.68419881     0.00800
H2590       H  0.78299663  0.29174887  0.58106108     0.04500
H2591       H  0.76624107  0.30084403  0.56237854     0.06400
H2592       H  0.76811717  0.26208672  0.58479673     0.07300
C2593       C  0.22345450  0.34780800  0.34037799    -0.22300
C2594       C  0.21115275  0.35663616  0.35619038     0.09600
C2595       C  0.19946359  0.33299824  0.35700312     0.10000
C2596       C  0.20037566  0.30062448  0.34198337    -0.17300
C2597       C  0.21275371  0.29128541  0.32629034    -0.27700
C2598       C  0.22445954  0.31542952  0.32534863     0.18400
C2599       C  0.21093314  0.39035061  0.37260539     0.12300
C2600       C  0.18610913  0.34183595  0.37398016    -0.12000
H2601       H  0.19138575  0.28240425  0.34266153     0.12600
C2602       C  0.23787204  0.30810385  0.30796197    -0.22900
H2603       H  0.23233045  0.36639833  0.33994263     0.08300
C2604       C  0.21759890  0.39310030  0.40008326     0.04600
C2605       C  0.21685873  0.42530305  0.41531571    -0.20100
C2606       C  0.20942371  0.45444237  0.40383053    -0.12400
C2607       C  0.20290743  0.45189855  0.37611797     0.13300
C2608       C  0.20378847  0.41972986  0.36074167    -0.22800
C2609       C  0.22516152  0.36181073  0.41359210    -0.05900
H2610       H  0.22176766  0.42750296  0.43667629     0.14800
C2611       C  0.19518421  0.48257827  0.36204797    -0.16100
H2612       H  0.19878835  0.41741961  0.33948455     0.09200
H2613       H  0.24362221  0.28492893  0.31723595     0.07000
H2614       H  0.24538102  0.33101685  0.30838669     0.08200
H2615       H  0.23508819  0.30285348  0.28482237     0.07300
H2616       H  0.18121105  0.36647364  0.36518890     0.02100
H2617       H  0.18881935  0.34593676  0.39732590     0.02600
H2618       H  0.17803497  0.32020984  0.37260240     0.06100
H2619       H  0.22954219  0.36839620  0.43546031     0.05100
H2620       H  0.23419188  0.35337336  0.39943124    -0.00700
H2621       H  0.21755427  0.33931897  0.41613826     0.00800
H2622       H  0.20031581  0.48886939  0.34078775     0.04500
H2623       H  0.19537091  0.50709241  0.37549296     0.06400
H2624       H  0.18384381  0.47514274  0.35816606     0.07300
C2625       C  0.23279010  0.44070597  0.56036449    -0.22300
C2626       C  0.24773643  0.44041043  0.55759060     0.09600
C2627       C  0.25424360  0.46016568  0.53506670     0.10000
C2628       C  0.24567191  0.48035096  0.51612031    -0.17300
C2629       C  0.23063914  0.48097750  0.51875403    -0.27700
C2630       C  0.22413152  0.46056930  0.54123263     0.18400
C2631       C  0.25637620  0.42002400  0.57908655     0.12300
C2632       C  0.27024416  0.45975304  0.53095664    -0.12000
H2633       H  0.25078419  0.49545507  0.49886926     0.12600
C2634       C  0.20815916  0.46027400  0.54589425    -0.22900
H2635       H  0.22789500  0.42547712  0.57781059     0.08300
C2636       C  0.26136630  0.43601043  0.60496945     0.04600
C2637       C  0.26906349  0.41556918  0.62519459    -0.20100
C2638       C  0.27150790  0.37894895  0.62091464    -0.12400
C2639       C  0.26661320  0.36309548  0.59456586     0.13300
C2640       C  0.25927062  0.38399493  0.57391077    -0.22800
C2641       C  0.25815934  0.47442846  0.61172528    -0.05900
H2642       H  0.27256373  0.42809232  0.64522597     0.14800
C2643       C  0.26897092  0.32431678  0.58790220    -0.16100
H2644       H  0.25542110  0.37197905  0.55389200     0.09200
H2645       H  0.20509830  0.44456405  0.56545635     0.07000
H2646       H  0.20276164  0.44800835  0.52682519     0.08200
H2647       H  0.20422298  0.48786376  0.54909727     0.07300
H2648       H  0.27389175  0.43211804  0.52678135     0.02100
H2649       H  0.27560362  0.47000092  0.55085137     0.02600
H2650       H  0.27362418  0.47651388  0.51222055     0.06100
H2651       H  0.26270860  0.48269084  0.63305866     0.05100
H2652       H  0.24639991  0.47852229  0.61262646    -0.00700
H2653       H  0.26277842  0.49181070  0.59456851     0.00800
H2654       H  0.26262229  0.30769192  0.60314949     0.04500
H2655       H  0.28052062  0.31781292  0.58979464     0.06400
H2656       H  0.26549019  0.31737646  0.56543821     0.07300
C2657       C  0.23785724  0.62801840  0.32965671    -0.22300
C2658       C  0.23612635  0.66496888  0.32885160     0.09600
C2659       C  0.22687789  0.68143318  0.34908500     0.10000
C2660       C  0.21997838  0.66071081  0.37042257    -0.17300
C2661       C  0.22218867  0.62370231  0.37242506    -0.27700
C2662       C  0.23109713  0.60709983  0.35112229     0.18400
C2663       C  0.24423232  0.68599669  0.30681507     0.12300
C2664       C  0.22461647  0.72108474  0.34865394    -0.12000
H2665       H  0.21329103  0.67393387  0.38642824     0.12600
C2666       C  0.23367608  0.56750103  0.35055066    -0.22900
H2667       H  0.24483025  0.61559061  0.31370403     0.08300
C2668       C  0.25861578  0.69617071  0.31138839     0.04600
C2669       C  0.26575725  0.71660534  0.29011364    -0.20100
C2670       C  0.25876772  0.72757410  0.26453454    -0.12400
C2671       C  0.24437590  0.71683212  0.25986784     0.13300
C2672       C  0.23734510  0.69611688  0.28102962    -0.22800
C2673       C  0.26631953  0.68593526  0.33896719    -0.05900
H2674       H  0.27673299  0.72479480  0.29379434     0.14800
C2675       C  0.23644213  0.72620346  0.23228891    -0.16100
H2676       H  0.22634925  0.68793106  0.27758594     0.09200
H2677       H  0.23998047  0.55930102  0.36989831     0.07000
H2678       H  0.23987590  0.55927852  0.33096962     0.08200
H2679       H  0.22329388  0.55311637  0.35006870     0.07300
H2680       H  0.21997469  0.72916052  0.32738657     0.02100
H2681       H  0.23500814  0.73489336  0.35180924     0.02600
H2682       H  0.21720457  0.72985260  0.36621438     0.06100
H2683       H  0.27743739  0.69640150  0.33933071     0.05100
H2684       H  0.26682089  0.65652848  0.34077405    -0.00700
H2685       H  0.26053134  0.69682386  0.35818133     0.00800
H2686       H  0.22572588  0.71343164  0.23148418     0.04500
H2687       H  0.24261901  0.71702990  0.21297548     0.06400
H2688       H  0.23476533  0.75535477  0.23101317     0.07300
C2689       C  0.24470618  0.71336042  0.47878102    -0.22300
C2690       C  0.24083532  0.72526615  0.50663353     0.09600
C2691       C  0.23302734  0.70308642  0.52553690     0.10000
C2692       C  0.22876859  0.66950070  0.51558660    -0.17300
C2693       C  0.23211719  0.65800604  0.48717637    -0.27700
C2694       C  0.24030340  0.68013417  0.46853751     0.18400
C2695       C  0.24526415  0.76127045  0.51506774     0.12300
C2696       C  0.22891384  0.71526155  0.55573417    -0.12000
H2697       H  0.22220557  0.65277439  0.52949824     0.12600
C2698       C  0.24378145  0.67114180  0.43718308    -0.22900
H2699       H  0.25080329  0.73075872  0.46453075     0.08300
C2700       C  0.25922668  0.76737431  0.52515640     0.04600
C2701       C  0.26409455  0.80224912  0.52740427    -0.20100
C2702       C  0.25538342  0.83114785  0.51957920    -0.12400
C2703       C  0.24103923  0.82521597  0.51131885     0.13300
C2704       C  0.23613544  0.79000809  0.50909008    -0.22800
C2705       C  0.26913547  0.73707465  0.53256318    -0.05900
H2706       H  0.27500565  0.80699210  0.53448014     0.14800
C2707       C  0.23095770  0.85482169  0.50326791    -0.16100
H2708       H  0.22537430  0.78486629  0.50132010     0.09200
H2709       H  0.25557355  0.67088657  0.43415913     0.07000
H2710       H  0.23914099  0.69168555  0.42259392     0.08200
H2711       H  0.23960831  0.64510806  0.42997539     0.07300
H2712       H  0.22221844  0.73957007  0.55428574     0.02100
H2713       H  0.23868409  0.72133750  0.56855718     0.02600
H2714       H  0.22271486  0.69460518  0.56761819     0.06100
H2715       H  0.27970293  0.74674746  0.54031394     0.05100
H2716       H  0.27095982  0.72025965  0.51298750    -0.00700
H2717       H  0.26432619  0.72060009  0.55011696     0.00800
H2718       H  0.22721754  0.85101276  0.48049016     0.04500
H2719       H  0.23595098  0.88147360  0.50470995     0.06400
H2720       H  0.22155044  0.85430659  0.51810600     0.07300
C2721       C  0.03063282  0.88678824  0.33390148    -0.22300
C2722       C  0.03923717  0.88168814  0.35842272     0.09600
C2723       C  0.04834254  0.90925297  0.36805635     0.10000
C2724       C  0.04855647  0.94164875  0.35278328    -0.17300
C2725       C  0.03968858  0.94702537  0.32850103    -0.27700
C2726       C  0.03068598  0.91901796  0.31878805     0.18400
C2727       C  0.03827819  0.84719556  0.37367009     0.12300
C2728       C  0.05757220  0.90466660  0.39468969    -0.12000
H2729       H  0.05549503  0.96301200  0.36002811     0.12600
C2730       C  0.02128251  0.92129994  0.29214125    -0.22900
H2731       H  0.02379809  0.86528428  0.32645689     0.08300
C2732       C  0.02618828  0.83841084  0.39065545     0.04600
C2733       C  0.02545761  0.80493007  0.40386630    -0.20100
C2734       C  0.03664273  0.78025096  0.40093994    -0.12400
C2735       C  0.04874123  0.78903184  0.38372059     0.13300
C2736       C  0.04931466  0.82237763  0.37002323    -0.22800
C2737       C  0.01423139  0.86467568  0.39547979    -0.05900
H2738       H  0.01629471  0.79845789  0.41741340     0.14800
C2739       C  0.06090171  0.76328051  0.37915099    -0.16100
H2740       H  0.05843113  0.82927039  0.35649047     0.09200
H2741       H  0.00992278  0.91754240  0.29860663     0.07000
H2742       H  0.02429796  0.90002800  0.27646941     0.08200
H2743       H  0.02216144  0.94679350  0.28051420     0.07300
H2744       H  0.06525443  0.88257652  0.39118575     0.02100
H2745       H  0.05073746  0.89852086  0.41388925     0.02600
H2746       H  0.06379973  0.92911238  0.39960277     0.06100
H2747       H  0.00583151  0.85384823  0.41019046     0.05100
H2748       H  0.00909353  0.87138135  0.37438507    -0.00700
H2749       H  0.01856137  0.88929290  0.40555267     0.00800
H2750       H  0.06891136  0.77372878  0.36339171     0.04500
H2751       H  0.05671423  0.73776795  0.37041835     0.06400
H2752       H  0.06655665  0.75844883  0.40003586     0.07300
C2753       C  0.10117084  0.60515415  0.41442932    -0.22300
C2754       C  0.11206359  0.62010770  0.43129970     0.09600
C2755       C  0.10910179  0.65024787  0.44865330     0.10000
C2756       C  0.09493955  0.66261118  0.45093165    -0.17300
C2757       C  0.08364937  0.64579596  0.43596077    -0.27700
C2758       C  0.08702965  0.61761980  0.41626675     0.18400
C2759       C  0.12635649  0.60290602  0.43123825     0.12300
C2760       C  0.12089109  0.66932234  0.46475441    -0.12000
H2761       H  0.09263780  0.68461896  0.46547014     0.12600
C2762       C  0.07595555  0.60009908  0.39707811    -0.22900
H2763       H  0.10368683  0.58271909  0.40046030     0.08300
C2764       C  0.13061379  0.58016582  0.45410517     0.04600
C2765       C  0.14458935  0.56651937  0.45429673    -0.20100
C2766       C  0.15443859  0.57473027  0.43200371    -0.12400
C2767       C  0.14966019  0.59500059  0.40774723     0.13300
C2768       C  0.13567747  0.60887483  0.40778314    -0.22800
C2769       C  0.12040442  0.57022446  0.47829847    -0.05900
H2770       H  0.14800780  0.55068483  0.47276349     0.14800
C2771       C  0.15908534  0.60194625  0.38161378    -0.16100
H2772       H  0.13208955  0.62522711  0.38975195     0.09200
H2773       H  0.06846494  0.58400436  0.41044404     0.07000
H2774       H  0.08092160  0.58170899  0.38100760     0.08200
H2775       H  0.07000126  0.62061776  0.38462310     0.07300
H2776       H  0.12902204  0.67889751  0.44889728     0.02100
H2777       H  0.12613784  0.65123400  0.48054351     0.02600
H2778       H  0.11677161  0.69266507  0.47702137     0.06100
H2779       H  0.12541645  0.55181045  0.49422196     0.05100
H2780       H  0.11087472  0.55680223  0.46892010    -0.00700
H2781       H  0.11688255  0.59425004  0.49035002     0.00800
H2782       H  0.15306633  0.61495194  0.36367280     0.04500
H2783       H  0.16337624  0.57641330  0.37312827     0.06400
H2784       H  0.16802358  0.61995988  0.38750628     0.07300
C2785       C  0.01672943  0.54738797  0.34787942    -0.22300
C2786       C  0.00692461  0.56322641  0.32884153     0.09600
C2787       C  0.00441860  0.60010314  0.33088933     0.10000
C2788       C  0.01102661  0.61987189  0.35320944    -0.17300
C2789       C  0.02019394  0.60379571  0.37377993    -0.27700
C2790       C  0.02351726  0.56704983  0.37010371     0.18400
C2791       C  0.99877459  0.54035677  0.30809328     0.12300
C2792       C  0.99464006  0.61852539  0.30962290    -0.12000
H2793       H  0.00854592  0.64790925  0.35512101     0.12600
C2794       C  0.03414152  0.54789502  0.38922347    -0.22900
H2795       H  0.01878576  0.51913383  0.34578608     0.08300
C2796       C  0.00476833  0.52818999  0.28162308     0.04600
C2797       C  0.99650908  0.50679002  0.26283854    -0.20100
C2798       C  0.98229676  0.49752642  0.26971225    -0.12400
C2799       C  0.97641425  0.50927358  0.29658991     0.13300
C2800       C  0.98474388  0.53043473  0.31538916    -0.22800
C2801       C  0.01977938  0.53835098  0.27300296    -0.05900
H2802       H  0.00106952  0.49794971  0.24231363     0.14800
C2803       C  0.96154353  0.49875288  0.30608248    -0.16100
H2804       H  0.98027891  0.53946378  0.33595251     0.09200
H2805       H  0.04457178  0.56202197  0.38870035     0.07000
H2806       H  0.03602937  0.52021345  0.38167333     0.08200
H2807       H  0.03013884  0.54615420  0.41197065     0.07300
H2808       H  0.98367853  0.60731338  0.31127422     0.02100
H2809       H  0.99871060  0.61468106  0.28705525     0.02600
H2810       H  0.99398793  0.64755154  0.31391971     0.06100
H2811       H  0.02278036  0.52707254  0.25143443     0.05100
H2812       H  0.02747249  0.52825953  0.28945521    -0.00700
H2813       H  0.02068318  0.56775050  0.27169072     0.00800
H2814       H  0.95910738  0.50822118  0.32851591     0.04500
H2815       H  0.96050893  0.46933087  0.30592172     0.06400
H2816       H  0.95346984  0.51057757  0.29127764     0.07300
C2817       C  0.98148613  0.45478873  0.46549989    -0.22300
C2818       C  0.99236744  0.46994806  0.48235670     0.09600
C2819       C  0.00004422  0.44833502  0.50220634     0.10000
C2820       C  0.99552701  0.41315222  0.50690412    -0.17300
C2821       C  0.98393350  0.39891743  0.49133244    -0.27700
C2822       C  0.97788101  0.41898449  0.46830652     0.18400
C2823       C  0.99532710  0.50842622  0.47883007     0.12300
C2824       C  0.01284977  0.46221360  0.51864249    -0.12000
H2825       H  0.00042586  0.39768419  0.52415171     0.12600
C2826       C  0.96748420  0.40367177  0.44648714    -0.22900
H2827       H  0.97560753  0.47105654  0.45013902     0.08300
C2828       C  0.99950037  0.52285166  0.45161815     0.04600
C2829       C  0.00215025  0.55936119  0.44955068    -0.20100
C2830       C  0.00179144  0.58130126  0.47427540    -0.12400
C2831       C  0.99736478  0.56718924  0.50132380     0.13300
C2832       C  0.99368004  0.53109897  0.50302156    -0.22800
C2833       C  0.00228566  0.49971991  0.42524402    -0.05900
H2834       H  0.00582210  0.57026185  0.42896773     0.14800
C2835       C  0.99669249  0.58934391  0.52868578    -0.16100
H2836       H  0.98994757  0.52033896  0.52362326     0.09200
H2837       H  0.96608756  0.37452198  0.44878857     0.07000
H2838       H  0.97159957  0.40840670  0.42406710     0.08200
H2839       H  0.95696655  0.41703899  0.44870945     0.07300
H2840       H  0.00967050  0.48374917  0.53382873     0.02100
H2841       H  0.02092156  0.47249935  0.50295896     0.02600
H2842       H  0.01798645  0.44100926  0.53183449     0.06100
H2843       H  0.00656413  0.51532452  0.40663962     0.05100
H2844       H  0.99230210  0.48706300  0.41747441    -0.00700
H2845       H  0.01025113  0.47890156  0.43076746     0.00800
H2846       H  0.98566126  0.58858559  0.53771836     0.04500
H2847       H  0.99951686  0.61758789  0.52471337     0.06400
H2848       H  0.00419856  0.57840052  0.54515003     0.07300
C2849       C  0.21492279  0.84486868  0.84204365    -0.22300
C2850       C  0.20407655  0.85045226  0.86263197     0.09600
C2851       C  0.19379035  0.82370740  0.86777002     0.10000
C2852       C  0.19452173  0.79184453  0.85183543    -0.17300
C2853       C  0.20540709  0.78614333  0.83118499    -0.27700
C2854       C  0.21573404  0.81308838  0.82616763     0.18400
C2855       C  0.20369988  0.88495384  0.87807707     0.12300
C2856       C  0.18212764  0.82879861  0.89009946    -0.12000
H2857       H  0.18655111  0.77133458  0.85541734     0.12600
C2858       C  0.22719585  0.80939476  0.80311070    -0.22900
H2859       H  0.22268364  0.86579535  0.83814223     0.08300
C2860       C  0.21338063  0.89257007  0.90078466     0.04600
C2861       C  0.21341464  0.92658105  0.91325671    -0.20100
C2862       C  0.20387227  0.95297884  0.90379871    -0.12400
C2863       C  0.19403837  0.94519373  0.88123794     0.13300
C2864       C  0.19410866  0.91117145  0.86862211    -0.22800
C2865       C  0.22349308  0.86463737  0.91213761    -0.05900
H2866       H  0.22074818  0.93242771  0.93094887     0.14800
C2867       C  0.18371349  0.97224433  0.86924684    -0.16100
H2868       H  0.18679775  0.90520470  0.85092252     0.09200
H2869       H  0.23451425  0.78721821  0.80869672     0.07000
H2870       H  0.23378970  0.83387643  0.80118274     0.08200
H2871       H  0.22219813  0.80431612  0.78153797     0.07300
H2872       H  0.17539474  0.85193938  0.88405059     0.02100
H2873       H  0.18695580  0.83359445  0.91187686     0.02600
H2874       H  0.17508623  0.80506297  0.89168066     0.06100
H2875       H  0.23009025  0.87480878  0.93048299     0.05100
H2876       H  0.23084789  0.85592942  0.89449008    -0.00700
H2877       H  0.21729282  0.84137548  0.92011103     0.00800
H2878       H  0.18551949  0.97527420  0.84541629     0.04500
H2879       H  0.18492844  0.99890412  0.87922473     0.06400
H2880       H  0.17256926  0.96298559  0.87293179     0.07300
C2881       C  0.17090348  0.60866186  0.65221551    -0.22300
C2882       C  0.17585055  0.63063209  0.62969923     0.09600
C2883       C  0.18158198  0.66427859  0.63645342     0.10000
C2884       C  0.18324585  0.67407581  0.66577821    -0.17300
C2885       C  0.17957330  0.65078142  0.68870985    -0.27700
C2886       C  0.17272932  0.61807903  0.68166545     0.18400
C2887       C  0.17717943  0.61564175  0.59991425     0.12300
C2888       C  0.18661239  0.68911381  0.61273582    -0.12000
H2889       H  0.18815886  0.69946543  0.67065291     0.12600
C2890       C  0.16750084  0.59247314  0.70465362    -0.22900
H2891       H  0.16636991  0.58298824  0.64665711     0.08300
C2892       C  0.18844317  0.59200097  0.59329057     0.04600
C2893       C  0.19019023  0.58006378  0.56461585    -0.20100
C2894       C  0.18111267  0.59150667  0.54212022    -0.12400
C2895       C  0.16960329  0.61465899  0.54881960     0.13300
C2896       C  0.16776439  0.62640317  0.57778894    -0.22800
C2897       C  0.19895054  0.58019922  0.61630305    -0.05900
H2898       H  0.19905105  0.56248373  0.55955680     0.14800
C2899       C  0.15909101  0.62638704  0.52584663    -0.16100
H2900       H  0.15911126  0.64445000  0.58316274     0.09200
H2901       H  0.17669802  0.58111454  0.71675212     0.07000
H2902       H  0.16155102  0.56980035  0.69492912     0.08200
H2903       H  0.16013623  0.60633437  0.71993167     0.07300
H2904       H  0.17750198  0.69604853  0.59831259     0.02100
H2905       H  0.19512515  0.67613069  0.59957354     0.02600
H2906       H  0.19103877  0.71421003  0.62181325     0.06100
H2907       H  0.20735433  0.56252005  0.60714223     0.05100
H2908       H  0.19329020  0.56526173  0.63372214    -0.00700
H2909       H  0.20432242  0.60375118  0.62599640     0.00800
H2910       H  0.15031304  0.64261473  0.53535234     0.04500
H2911       H  0.15421794  0.60274921  0.51523156     0.06400
H2912       H  0.16456121  0.64291985  0.50917423     0.07300
C2913       C  0.24964266  0.53627706  0.75335459    -0.22300
C2914       C  0.24481133  0.52092614  0.72736383     0.09600
C2915       C  0.23569570  0.54001059  0.70875454     0.10000
C2916       C  0.23089749  0.57361149  0.71751595    -0.17300
C2917       C  0.23473889  0.58803711  0.74478766    -0.27700
C2918       C  0.24459747  0.56940337  0.76270660     0.18400
C2919       C  0.24917705  0.48420996  0.72094034     0.12300
C2920       C  0.23068997  0.52440172  0.68024546    -0.12000
H2921       H  0.22334355  0.58774713  0.70383487     0.12600
C2922       C  0.24936705  0.58145156  0.79262052    -0.22900
H2923       H  0.25684914  0.52132280  0.76724750     0.08300
C2924       C  0.26269143  0.47718072  0.70883695     0.04600
C2925       C  0.26739253  0.44208464  0.70732466    -0.20100
C2926       C  0.25888906  0.41383585  0.71751039    -0.12400
C2927       C  0.24500903  0.42063345  0.72827173     0.13300
C2928       C  0.24031238  0.45604974  0.72993990    -0.22800
C2929       C  0.27225664  0.50674887  0.69814873    -0.05900
H2930       H  0.27798166  0.43666621  0.69867058     0.14800
C2931       C  0.23526704  0.39174374  0.73940554    -0.16100
H2932       H  0.22990538  0.46187256  0.73929540     0.09200
H2933       H  0.26115805  0.58514773  0.79256076     0.07000
H2934       H  0.24665108  0.56069038  0.80894828     0.08200
H2935       H  0.24448427  0.60641442  0.80028648     0.07300
H2936       H  0.22470513  0.49938238  0.68436375     0.02100
H2937       H  0.24005014  0.51855376  0.66608355     0.02600
H2938       H  0.22352146  0.54291457  0.66832722     0.06100
H2939       H  0.28242978  0.49638198  0.68890085     0.05100
H2940       H  0.27493194  0.52488963  0.71646652    -0.00700
H2941       H  0.26670784  0.52203359  0.68082491     0.00800
H2942       H  0.23262528  0.39687840  0.76266765     0.04500
H2943       H  0.24011128  0.36492377  0.73793251     0.06400
H2944       H  0.22521125  0.39166626  0.72653194     0.07300
C2945       C  0.25987372  0.55524585  0.92374785    -0.22300
C2946       C  0.24487541  0.55444340  0.92526193     0.09600
C2947       C  0.23820394  0.53292442  0.94653349     0.10000
C2948       C  0.24666162  0.51244873  0.96551593    -0.17300
C2949       C  0.26172746  0.51299496  0.96412035    -0.27700
C2950       C  0.26839828  0.53507622  0.94293621     0.18400
C2951       C  0.23641000  0.57473283  0.90326104     0.12300
C2952       C  0.22214473  0.53193357  0.94952184    -0.12000
H2953       H  0.24141754  0.49608550  0.98180366     0.12600
C2954       C  0.28443507  0.53681318  0.93962917    -0.22900
H2955       H  0.26493460  0.57149039  0.90713319     0.08300
C2956       C  0.23554199  0.61220318  0.90358831     0.04600
C2957       C  0.22819126  0.62993602  0.88107603    -0.20100
C2958       C  0.22156275  0.61121254  0.85808702    -0.12400
C2959       C  0.22203582  0.57334189  0.85857324     0.13300
C2960       C  0.22950515  0.55586998  0.88100016    -0.22800
C2961       C  0.24234916  0.63349336  0.92772400    -0.05900
H2962       H  0.22786395  0.65873815  0.88120769     0.14800
C2963       C  0.21518808  0.55070340  0.83523529    -0.16100
H2964       H  0.23023911  0.52709978  0.88089030     0.09200
H2965       H  0.28767492  0.55379354  0.92091835     0.07000
H2966       H  0.28878094  0.50973498  0.93578411     0.08200
H2967       H  0.28929611  0.54842672  0.95955282     0.07300
H2968       H  0.21724996  0.52140174  0.92924042     0.02100
H2969       H  0.21804947  0.55918270  0.95369119     0.02600
H2970       H  0.21868775  0.51463556  0.96786853     0.06100
H2971       H  0.24037573  0.66243913  0.92511385     0.05100
H2972       H  0.25409507  0.62921227  0.92777033    -0.00700
H2973       H  0.23784876  0.62508984  0.94908046     0.00800
H2974       H  0.21981440  0.55715282  0.81354929     0.04500
H2975       H  0.20344911  0.55519914  0.83504880     0.06400
H2976       H  0.21694578  0.52187420  0.83906916     0.07300
C2977       C  0.25792430  0.86234430  0.66300267    -0.22300
C2978       C  0.25466952  0.82632650  0.65850370     0.09600
C2979       C  0.25947687  0.80946358  0.63280510     0.10000
C2980       C  0.26704490  0.82916165  0.61181191    -0.17300
C2981       C  0.26973507  0.86580751  0.61531733    -0.27700
C2982       C  0.26529895  0.88242882  0.64172582     0.18400
C2983       C  0.24586706  0.80672993  0.68041371     0.12300
C2984       C  0.25639673  0.77068887  0.62726473    -0.12000
H2985       H  0.27028048  0.81598585  0.59183342     0.12600
C2986       C  0.26826557  0.92112766  0.64787269    -0.22900
H2987       H  0.25433147  0.87500681  0.68297085     0.08300
C2988       C  0.25204833  0.79107345  0.70531856     0.04600
C2989       C  0.24349653  0.77034677  0.72405224    -0.20100
C2990       C  0.22880444  0.76484351  0.71866322    -0.12400
C2991       C  0.22257452  0.78136411  0.69393004     0.13300
C2992       C  0.23119443  0.80202420  0.67518993    -0.22800
C2993       C  0.26773627  0.79572265  0.71179025    -0.05900
H2994       H  0.24836594  0.75821973  0.74304217     0.14800
C2995       C  0.20703648  0.77619741  0.68632960    -0.16100
H2996       H  0.22653551  0.81403928  0.65592983     0.09200
H2997       H  0.26508266  0.92863979  0.67041909     0.07000
H2998       H  0.26208127  0.93821948  0.63274650     0.08200
H2999       H  0.27988674  0.92659473  0.64544802     0.07300
H3000       H  0.24466036  0.76619585  0.62652950     0.02100
H3001       H  0.26108717  0.75434201  0.64499590     0.02600
H3002       H  0.26099277  0.76152094  0.60618358     0.06100
H3003       H  0.27092102  0.78151530  0.73200086     0.05100
H3004       H  0.27019806  0.82438893  0.71471981    -0.00700
H3005       H  0.27421085  0.78507777  0.69341833     0.00800
H3006       H  0.20015057  0.78784746  0.70361122     0.04500
H3007       H  0.20470341  0.74740054  0.68402130     0.06400
H3008       H  0.20422278  0.78936622  0.66542414     0.07300
C3009       C  0.01936082  0.39001694  0.83467061    -0.22300
C3010       C  0.02764649  0.38474387  0.85961152     0.09600
C3011       C  0.03593521  0.41282907  0.87101828     0.10000
C3012       C  0.03612750  0.44557545  0.85641005    -0.17300
C3013       C  0.02805422  0.45073026  0.83098440    -0.27700
C3014       C  0.01945867  0.42260456  0.82004519     0.18400
C3015       C  0.02785872  0.34904524  0.87273794     0.12300
C3016       C  0.04457179  0.40809230  0.89846093    -0.12000
H3017       H  0.04274173  0.46707836  0.86458200     0.12600
C3018       C  0.01082688  0.42484790  0.79230171    -0.22900
H3019       H  0.01305692  0.36814682  0.82610172     0.08300
C3020       C  0.01681397  0.33752160  0.89137164     0.04600
C3021       C  0.01769986  0.30369794  0.90390295    -0.20100
C3022       C  0.02960993  0.28167316  0.89894650    -0.12400
C3023       C  0.04026641  0.29253175  0.87881501     0.13300
C3024       C  0.03921077  0.32620736  0.86589133    -0.22800
C3025       C  0.00433857  0.36130947  0.89865523    -0.05900
H3026       H  0.00931285  0.29508162  0.91864462     0.14800
C3027       C  0.05251173  0.26858443  0.87023312    -0.16100
H3028       H  0.04738864  0.33509555  0.85073534     0.09200
H3029       H  0.99936191  0.41998692  0.79732703     0.07000
H3030       H  0.01457247  0.40420640  0.77671512     0.08200
H3031       H  0.01162802  0.45069277  0.78112650     0.07300
H3032       H  0.05263920  0.38678968  0.89525374     0.02100
H3033       H  0.03736957  0.40065899  0.91677540     0.02600
H3034       H  0.05030392  0.43287954  0.90458222     0.06100
H3035       H  0.99676519  0.34833108  0.91403599     0.05100
H3036       H  0.99839208  0.36802824  0.87845388    -0.00700
H3037       H  0.00827979  0.38617726  0.90897251     0.00800
H3038       H  0.05903836  0.28035725  0.85239621     0.04500
H3039       H  0.04827794  0.24268518  0.86239340     0.06400
H3040       H  0.05974290  0.26419056  0.88903982     0.07300
C3041       C  0.04839508  0.58936735  0.64448574    -0.22300
C3042       C  0.05929113  0.61342971  0.63775905     0.09600
C3043       C  0.06880980  0.62486391  0.65966737     0.10000
C3044       C  0.06716578  0.61177526  0.68821270    -0.17300
C3045       C  0.05627278  0.58735630  0.69501181    -0.27700
C3046       C  0.04669594  0.57614482  0.67275091     0.18400
C3047       C  0.05961145  0.62772971  0.60781724     0.12300
C3048       C  0.08059954  0.65084441  0.65284275    -0.12000
H3049       H  0.07437076  0.62063148  0.70525006     0.12600
C3050       C  0.03417519  0.55169955  0.67864151    -0.22900
H3051       H  0.04100750  0.58136996  0.62745778     0.08300
C3052       C  0.06543631  0.60801541  0.58451897     0.04600
C3053       C  0.06301077  0.61931776  0.55579654    -0.20100
C3054       C  0.05464947  0.64955295  0.54983802    -0.12400
C3055       C  0.04918216  0.66985121  0.57353546     0.13300
C3056       C  0.05185075  0.65870641  0.60218698    -0.22800
C3057       C  0.07384680  0.57453893  0.59002423    -0.05900
H3058       H  0.06733333  0.60382493  0.53787828     0.14800
C3059       C  0.03975187  0.70187391  0.56913428    -0.16100
H3060       H  0.04722005  0.67317915  0.62038027     0.09200
H3061       H  0.03807683  0.52492421  0.68478451     0.07000
H3062       H  0.02727699  0.54831702  0.65911193     0.08200
H3063       H  0.02739744  0.56270469  0.69640135     0.07300
H3064       H  0.07594429  0.67612643  0.64475212     0.02100
H3065       H  0.08773623  0.63954203  0.63580548     0.02600
H3066       H  0.08716722  0.65687365  0.67241424     0.06100
H3067       H  0.07776074  0.56243975  0.56938146     0.05100
H3068       H  0.06701205  0.55467284  0.60131724    -0.00700
H3069       H  0.08325664  0.58070522  0.60389772     0.00800
H3070       H  0.03023572  0.69423665  0.55606194     0.04500
H3071       H  0.04582919  0.72324560  0.55791780     0.06400
H3072       H  0.03584441  0.71298665  0.59015867     0.07300
C3073       C  0.11054175  0.57525415  0.79357022    -0.22300
C3074       C  0.11289580  0.60374371  0.81272014     0.09600
C3075       C  0.10165315  0.61529727  0.83087586     0.10000
C3076       C  0.08809244  0.59932110  0.82840159    -0.17300
C3077       C  0.08526507  0.57246785  0.80759443    -0.27700
C3078       C  0.09691628  0.55953808  0.79057853     0.18400
C3079       C  0.12688253  0.62275836  0.81155044     0.12300
C3080       C  0.10384186  0.64539290  0.85212844    -0.12000
H3081       H  0.07944879  0.60931927  0.84188845     0.12600
C3082       C  0.09512302  0.53049413  0.76818896    -0.22900
H3083       H  0.11931624  0.56635290  0.77988995     0.08300
C3084       C  0.13872407  0.61175324  0.82819035     0.04600
C3085       C  0.15203934  0.62848618  0.82407019    -0.20100
C3086       C  0.15403254  0.65551411  0.80302931    -0.12400
C3087       C  0.14186360  0.66751167  0.78726165     0.13300
C3088       C  0.12848418  0.65111565  0.79195778    -0.22800
C3089       C  0.13741809  0.58153390  0.84959382    -0.05900
H3090       H  0.16112423  0.61909042  0.83653194     0.14800
C3091       C  0.14284883  0.69623717  0.76442581    -0.16100
H3092       H  0.11927111  0.65950366  0.77938051     0.09200
H3093       H  0.10543840  0.52350218  0.75755360     0.07000
H3094       H  0.08770441  0.53933211  0.75074754     0.08200
H3095       H  0.09093481  0.50609151  0.77883221     0.07300
H3096       H  0.10705604  0.66980462  0.84017763     0.02100
H3097       H  0.11235470  0.63832540  0.86794053     0.02600
H3098       H  0.09393243  0.65137583  0.86461700     0.06100
H3099       H  0.14772641  0.57604554  0.86074598     0.05100
H3100       H  0.13406354  0.55698232  0.83799270    -0.00700
H3101       H  0.12933049  0.58812753  0.86650592     0.00800
H3102       H  0.15010311  0.68769841  0.74652754     0.04500
H3103       H  0.14686050  0.72120475  0.77444926     0.06400
H3104       H  0.13226359  0.70210218  0.75454650     0.07300
C3105       C  0.00948213  0.42991665  0.67832125    -0.22300
C3106       C  0.99505448  0.43727142  0.67270017     0.09600
C3107       C  0.98820669  0.46456783  0.68849676     0.10000
C3108       C  0.99596729  0.48413733  0.70936661    -0.17300
C3109       C  0.01053031  0.47714371  0.71522286    -0.27700
C3110       C  0.01731424  0.44921079  0.69934416     0.18400
C3111       C  0.98742317  0.41660437  0.64965139     0.12300
C3112       C  0.97268046  0.47311261  0.68319781    -0.12000
H3113       H  0.99051015  0.50502195  0.72126896     0.12600
C3114       C  0.03277936  0.43932296  0.70396901    -0.22900
H3115       H  0.01465602  0.40889236  0.66602658     0.08300
C3116       C  0.98784615  0.42718723  0.62010442     0.04600
C3117       C  0.98060028  0.40686759  0.59900038    -0.20100
C3118       C  0.97313550  0.37571253  0.60653449    -0.12400
C3119       C  0.97260350  0.36524620  0.63619174     0.13300
C3120       C  0.97973673  0.38587865  0.65736927    -0.22800
C3121       C  0.99614474  0.45963295  0.61078499    -0.05900
H3122       H  0.98118087  0.41468864  0.57624564     0.14800
C3123       C  0.96438721  0.33304138  0.64631232    -0.16100
H3124       H  0.97933152  0.37788713  0.68008525     0.09200
H3125       H  0.03977130  0.46259699  0.69965753     0.07000
H3126       H  0.03623945  0.41762270  0.68909182     0.08200
H3127       H  0.03435185  0.42975290  0.72664754     0.07300
H3128       H  0.96600468  0.44935332  0.68789953     0.02100
H3129       H  0.97112670  0.48106158  0.66009362     0.02600
H3130       H  0.96890361  0.49522899  0.69731573     0.06100
H3131       H  0.99541781  0.46413860  0.58687119     0.05100
H3132       H  0.00760984  0.45631857  0.61648230    -0.00700
H3133       H  0.99187845  0.48353148  0.62204676     0.00800
H3134       H  0.97184917  0.31379180  0.65654515     0.04500
H3135       H  0.95864909  0.31938120  0.62836524     0.06400
H3136       H  0.95627702  0.34124574  0.66273076     0.07300
C3137       C  0.94589606  0.64532846  0.10072907    -0.22300
C3138       C  0.95727265  0.63772878  0.11940983     0.09600
C3139       C  0.96815688  0.66306946  0.12381197     0.10000
C3140       C  0.96764110  0.69535264  0.10854144    -0.17300
C3141       C  0.95641727  0.70294639  0.08907328    -0.27700
C3142       C  0.94521378  0.67758591  0.08555910     0.18400
C3143       C  0.95744337  0.60287355  0.13415161     0.12300
C3144       C  0.98026649  0.65599182  0.14465447    -0.12000
H3145       H  0.97615912  0.71456608  0.11160374     0.12600
C3146       C  0.93268948  0.68322783  0.06530630    -0.22900
H3147       H  0.93756133  0.62556320  0.09781612     0.08300
C3148       C  0.94862303  0.59621058  0.15846402     0.04600
C3149       C  0.94881644  0.56250165  0.17131331    -0.20100
C3150       C  0.95765408  0.53523140  0.16049004    -0.12400
C3151       C  0.96642958  0.54192368  0.13586205     0.13300
C3152       C  0.96616246  0.57577742  0.12293920    -0.22800
C3153       C  0.93913830  0.62480039  0.17104538    -0.05900
H3154       H  0.94216035  0.55760570  0.19029145     0.14800
C3155       C  0.97571597  0.51344079  0.12253325    -0.16100
H3156       H  0.97273238  0.58119590  0.10393088     0.09200
H3157       H  0.92632936  0.70652866  0.07260401     0.07000
H3158       H  0.92534191  0.65999105  0.06502828     0.08200
H3159       H  0.93656729  0.68727202  0.04262873     0.07300
H3160       H  0.98637730  0.63226778  0.13740620     0.02100
H3161       H  0.97591597  0.65113826  0.16686752     0.02600
H3162       H  0.98779016  0.67882405  0.14586972     0.06100
H3163       H  0.93315249  0.61527942  0.19049627     0.05100
H3164       H  0.93121567  0.63345666  0.15450012    -0.00700
H3165       H  0.94575127  0.64795453  0.17772029     0.00800
H3166       H  0.96907676  0.48995180  0.11680373     0.04500
H3167       H  0.98421101  0.50548791  0.13808924     0.06400
H3168       H  0.98108513  0.52285721  0.10231266     0.07300
C3169       C  0.98526135  0.88310331  0.16326289    -0.22300
C3170       C  0.99021983  0.91749739  0.15710316     0.09600
C3171       C  0.98795022  0.93209172  0.12915286     0.10000
C3172       C  0.98066507  0.91204173  0.10801881    -0.17300
C3173       C  0.97600212  0.87711791  0.11370478    -0.27700
C3174       C  0.97831935  0.86250727  0.14184069     0.18400
C3175       C  0.99849141  0.93713386  0.17960584     0.12300
C3176       C  0.99370845  0.96830211  0.12125276    -0.12000
H3177       H  0.97922324  0.92316480  0.08640253     0.12600
C3178       C  0.97345222  0.82547174  0.14959499    -0.22900
H3179       H  0.98713780  0.87206848  0.18476429     0.08300
C3180       C  0.99201289  0.96246072  0.19799922     0.04600
C3181       C  0.00053654  0.98213066  0.21743317    -0.20100
C3182       C  0.01545142  0.97667517  0.21955292    -0.12400
C3183       C  0.02176202  0.94974306  0.20182532     0.13300
C3184       C  0.01319520  0.93077334  0.18194462    -0.22800
C3185       C  0.97606778  0.96838679  0.19735345    -0.05900
H3186       H  0.99540359  0.00179359  0.23119756     0.14800
C3187       C  0.03742986  0.94039168  0.20338435    -0.16100
H3188       H  0.01800106  0.91084157  0.16791251     0.09200
H3189       H  0.97525348  0.81949505  0.17303868     0.07000
H3190       H  0.97953041  0.80551977  0.13675250     0.08200
H3191       H  0.96183052  0.82263775  0.14513992     0.07300
H3192       H  0.00552833  0.96855233  0.12370514     0.02100
H3193       H  0.98901044  0.98886319  0.13573823     0.02600
H3194       H  0.99114983  0.97552492  0.09834990     0.06100
H3195       H  0.97267616  0.98889972  0.21338336     0.05100
H3196       H  0.97046070  0.94318520  0.20275284    -0.00700
H3197       H  0.97268865  0.97727818  0.17534949     0.00800
H3198       H  0.04033090  0.91899563  0.18773226     0.04500
H3199       H  0.04008919  0.93063487  0.22558421     0.06400
H3200       H  0.04404057  0.96396466  0.19794853     0.07300
C3201       C  0.99473089  0.02716840  0.99407777    -0.22300
C3202       C  0.00473869  0.00146024  0.98511910     0.09600
C3203       C  0.01757022  0.01193407  0.97165860     0.10000
C3204       C  0.02036892  0.04810997  0.96834756    -0.17300
C3205       C  0.01061582  0.07408472  0.97798869    -0.27700
C3206       C  0.99751967  0.06363526  0.99065226     0.18400
C3207       C  0.00164643  0.96368351  0.99051969     0.12300
C3208       C  0.02838330  0.98501764  0.96124736    -0.12000
H3209       H  0.03040908  0.05626809  0.95849482     0.12600
C3210       C  0.98663658  0.08989959  0.00171699    -0.22900
H3211       H  0.98482523  0.01869298  0.00430578     0.08300
C3212       C  0.00448417  0.94796055  0.01782021     0.04600
C3213       C  0.99953833  0.91342948  0.02327861    -0.20100
C3214       C  0.99169544  0.89483364  0.00209729    -0.12400
C3215       C  0.99032487  0.90923156  0.97370186     0.13300
C3216       C  0.99526680  0.94371897  0.96831315    -0.22800
C3217       C  0.01215142  0.96818973  0.04150503    -0.05900
H3218       H  0.00061524  0.90234919  0.04501069     0.14800
C3219       C  0.98348015  0.88919346  0.94887899    -0.16100
H3220       H  0.99363965  0.95561416  0.94701706     0.09200
H3221       H  0.98484036  0.08555756  0.02541130     0.07000
H3222       H  0.97636831  0.08590858  0.99000161     0.08200
H3223       H  0.99001807  0.11789491  0.99864640     0.07300
H3224       H  0.02345958  0.96752427  0.94451591     0.02100
H3225       H  0.03204601  0.96854343  0.97988108     0.02600
H3226       H  0.03791264  0.99795905  0.95132878     0.06100
H3227       H  0.01345635  0.95191308  0.06154556     0.05100
H3228       H  0.00599716  0.99240886  0.04736099    -0.00700
H3229       H  0.02295439  0.97609417  0.03373361     0.00800
H3230       H  0.97409342  0.90416339  0.94067038     0.04500
H3231       H  0.98002094  0.86204727  0.95519537     0.06400
H3232       H  0.99132072  0.88645685  0.93078004     0.07300
C3233       C  0.00387081  0.62302072  0.91021558    -0.22300
C3234       C  0.00364557  0.66028910  0.90950804     0.09600
C3235       C  0.01064118  0.67831666  0.88658182     0.10000
C3236       C  0.01729562  0.65867254  0.86429449    -0.17300
C3237       C  0.01701957  0.62125971  0.86408019    -0.27700
C3238       C  0.01043678  0.60320011  0.88777675     0.18400
C3239       C  0.99593089  0.68016983  0.93276994     0.12300
C3240       C  0.01082730  0.71835768  0.88536119    -0.12000
H3241       H  0.02224217  0.67273636  0.84626021     0.12600
C3242       C  0.01049915  0.56319689  0.88993367    -0.22900
H3243       H  0.99866549  0.60941582  0.92818532     0.08300
C3244       C  0.98130624  0.68891356  0.93009085     0.04600
C3245       C  0.97468596  0.70967912  0.95179104    -0.20100
C3246       C  0.98238462  0.72237638  0.97602248    -0.12400
C3247       C  0.99701611  0.71277093  0.97893271     0.13300
C3248       C  0.00354987  0.69173863  0.95728658    -0.22800
C3249       C  0.97275682  0.67671499  0.90409904    -0.05900
H3250       H  0.96350731  0.71678386  0.94941820     0.14800
C3251       C  0.00578957  0.72379159  0.00500784    -0.16100
H3252       H  0.01475721  0.68470033  0.95921231     0.09200
H3253       H  0.00397211  0.55138860  0.87220977     0.07000
H3254       H  0.00589720  0.55391828  0.91096494     0.08200
H3255       H  0.02165671  0.55319309  0.88847122     0.07300
H3256       H  0.01616999  0.72910124  0.90511476     0.02100
H3257       H  0.99970838  0.72865699  0.88438693     0.02600
H3258       H  0.01668857  0.72828365  0.86588873     0.06100
H3259       H  0.96147768  0.68592225  0.90528814     0.05100
H3260       H  0.97273237  0.64721742  0.90309865    -0.00700
H3261       H  0.97756599  0.68739434  0.88373958     0.00800
H3262       H  0.01663048  0.71169604  0.00458504     0.04500
H3263       H  0.00039489  0.71508182  0.02540463     0.06400
H3264       H  0.00722877  0.75307278  0.00522729     0.07300
C3265       C  0.77421302  0.07460698  0.12171343    -0.22300
C3266       C  0.78430788  0.10071143  0.11459770     0.09600
C3267       C  0.79535396  0.09301808  0.09468507     0.10000
C3268       C  0.79582681  0.05947953  0.08153137    -0.17300
C3269       C  0.78550492  0.03325463  0.08779924    -0.27700
C3270       C  0.77461892  0.04087474  0.10855968     0.18400
C3271       C  0.78375789  0.13529605  0.12968317     0.12300
C3272       C  0.80657370  0.12036403  0.08715080    -0.12000
H3273       H  0.80415686  0.05413795  0.06563962     0.12600
C3274       C  0.76359692  0.01370397  0.11757386    -0.22900
H3275       H  0.76598686  0.08075541  0.13765193     0.08300
C3276       C  0.77525882  0.16366497  0.11953049     0.04600
C3277       C  0.77568010  0.19642648  0.13426911    -0.20100
C3278       C  0.78456968  0.20127738  0.15862217    -0.12400
C3279       C  0.79289898  0.17226829  0.16896821     0.13300
C3280       C  0.79234576  0.13974370  0.15426876    -0.22800
C3281       C  0.76587319  0.15930440  0.09310696    -0.05900
H3282       H  0.76917664  0.21836766  0.12662399     0.14800
C3283       C  0.80203300  0.17459419  0.19608292    -0.16100
H3284       H  0.79872891  0.11753115  0.16185461     0.09200
H3285       H  0.75641624  0.00744504  0.09901471     0.07000
H3286       H  0.75674940  0.02356348  0.13569388     0.08200
H3287       H  0.76902331  0.98917887  0.12519342     0.07300
H3288       H  0.81260210  0.12793754  0.10706494     0.02100
H3289       H  0.80138087  0.14437182  0.07789223     0.02600
H3290       H  0.81436164  0.11012722  0.07084918     0.06100
H3291       H  0.75996191  0.18413555  0.08798957     0.05100
H3292       H  0.75793220  0.13785807  0.09706210    -0.00700
H3293       H  0.77253176  0.15220026  0.07387680     0.00800
H3294       H  0.79541252  0.18330968  0.21491184     0.04500
H3295       H  0.81102028  0.19342486  0.19260897     0.06400
H3296       H  0.80682960  0.14850883  0.20183486     0.07300
C3297       C  0.73893831  0.03492539  0.95860890    -0.22300
C3298       C  0.74600544  0.05019878  0.93474622     0.09600
C3299       C  0.76092600  0.04543951  0.93173496     0.10000
C3300       C  0.76841957  0.02512858  0.95250586    -0.17300
C3301       C  0.76132708  0.00881163  0.97608131    -0.27700
C3302       C  0.74633416  0.01425518  0.97926128     0.18400
C3303       C  0.73750498  0.07017763  0.91266647     0.12300
C3304       C  0.76888107  0.06130601  0.90626450    -0.12000
H3305       H  0.77984442  0.02132687  0.94991505     0.12600
C3306       C  0.73800673  0.99920477  0.00464589    -0.22900
H3307       H  0.72749824  0.03889334  0.96084818     0.08300
C3308       C  0.73032219  0.05247520  0.88984309     0.04600
C3309       C  0.72311520  0.07238576  0.86845471    -0.20100
C3310       C  0.72300578  0.10987461  0.86892926    -0.12400
C3311       C  0.72972530  0.12748986  0.89277861     0.13300
C3312       C  0.73682671  0.10734675  0.91427766    -0.22800
C3313       C  0.73061152  0.01250887  0.88763730    -0.05900
H3314       H  0.71808369  0.05844123  0.85048670     0.14800
C3315       C  0.72944982  0.16738326  0.89609530    -0.16100
H3316       H  0.74217620  0.12069783  0.93217997     0.09200
H3317       H  0.73777472  0.96974802  0.00339252     0.07000
H3318       H  0.72671914  0.00845256  0.00468161     0.08200
H3319       H  0.74295607  0.00778827  0.02551686     0.07300
H3320       H  0.76776164  0.09068977  0.90657935     0.02100
H3321       H  0.76443218  0.05080725  0.88551553     0.02600
H3322       H  0.78046854  0.05479187  0.90693033     0.06100
H3323       H  0.72462683  0.00279664  0.86828289     0.05100
H3324       H  0.72565703  0.00067302  0.90741435    -0.00700
H3325       H  0.74184556  0.00316704  0.88575290     0.00800
H3326       H  0.71823549  0.17707147  0.89523254     0.04500
H3327       H  0.73588651  0.18011145  0.87862443     0.06400
H3328       H  0.73408152  0.17599332  0.91726791     0.07300
C3329       C  0.86366424  0.90945103  0.04529816    -0.22300
C3330       C  0.86614361  0.87855544  0.06155415     0.09600
C3331       C  0.85474141  0.86260749  0.07677609     0.10000
C3332       C  0.84091316  0.87688477  0.07416840    -0.17300
C3333       C  0.83804619  0.90645110  0.05608432    -0.27700
C3334       C  0.84980842  0.92358908  0.04215512     0.18400
C3335       C  0.88053401  0.86187814  0.06023703     0.12300
C3336       C  0.85710256  0.82970831  0.09487043     0.07200
H3337       H  0.83217795  0.86364596  0.08533041     0.12600
C3338       C  0.84798980  0.95573437  0.02287446    -0.22900
H3339       H  0.87258159  0.92160932  0.03387102     0.08300
C3340       C  0.88434558  0.83931875  0.03688690     0.04600
C3341       C  0.89839977  0.82642570  0.03490729    -0.20100
C3342       C  0.90888031  0.83586716  0.05552925    -0.12400
C3343       C  0.90478803  0.85700694  0.07986161     0.13300
C3344       C  0.89064013  0.86968842  0.08186067    -0.22800
C3345       C  0.87362979  0.82943997  0.01369633    -0.05900
H3346       H  0.90136407  0.81025072  0.01626685     0.14800
C3347       C  0.91513536  0.86608288  0.10395592    -0.16100
H3348       H  0.88751737  0.88652851  0.09999231     0.09200
H3349       H  0.85840663  0.96566453  0.01444984     0.07000
H3350       H  0.84297071  0.97767231  0.03547156     0.08200
H3351       H  0.84130227  0.94887345  0.00367404     0.07300
H3352       H  0.86494696  0.83547315  0.11241928     0.02100
H3353       H  0.86130276  0.80795331  0.08088398     0.02600
H3354       H  0.84703271  0.82031494  0.10523086     0.06100
H3355       H  0.87833371  0.81142993  0.99702541     0.05100
H3356       H  0.86980857  0.85375151  0.00242212    -0.00700
H3357       H  0.86436758  0.81564254  0.02383957     0.00800
H3358       H  0.90972971  0.88001087  0.12229882     0.04500
H3359       H  0.92365428  0.88402978  0.09573266     0.06400
H3360       H  0.91997971  0.84135060  0.11272058     0.07300
C3361       C  0.73594351  0.79618589  0.18100995    -0.22300
C3362       C  0.75067359  0.79092596  0.17793439     0.09600
C3363       C  0.75768867  0.76663699  0.19639174     0.10000
C3364       C  0.74974128  0.74780137  0.21744706    -0.17300
C3365       C  0.73484966  0.75274725  0.22079907    -0.27700
C3366       C  0.72790263  0.77765570  0.20206426     0.18400
C3367       C  0.75847180  0.81157942  0.15528051     0.12300
C3368       C  0.77359505  0.76083879  0.19396114    -0.12000
H3369       H  0.75528580  0.72914273  0.23142012     0.12600
C3370       C  0.71206048  0.78525977  0.20359754    -0.22900
H3371       H  0.73070411  0.81504957  0.16669070     0.08300
C3372       C  0.76018097  0.79846857  0.12663414     0.04600
C3373       C  0.76703858  0.81967734  0.10561176    -0.20100
C3374       C  0.77178434  0.85429816  0.11218574    -0.12400
C3375       C  0.77000449  0.86742742  0.14094561     0.13300
C3376       C  0.76351189  0.84569931  0.16219881    -0.22800
C3377       C  0.75435278  0.76259529  0.11800435    -0.05900
H3378       H  0.76810672  0.80973459  0.08349338     0.14800
C3379       C  0.77501151  0.90406696  0.14947306    -0.16100
H3380       H  0.76205440  0.85563495  0.18421720     0.09200
H3381       H  0.70869804  0.80521724  0.18712104     0.07000
H3382       H  0.70925713  0.79620532  0.22537987     0.08200
H3383       H  0.70589285  0.76057743  0.19924001     0.07300
H3384       H  0.77930131  0.78629441  0.19791803     0.02100
H3385       H  0.77633146  0.75098673  0.17181232     0.02600
H3386       H  0.77746656  0.74105634  0.21009893     0.06100
H3387       H  0.75650944  0.75651605  0.09467756     0.05100
H3388       H  0.74258678  0.76204489  0.12141364    -0.00700
H3389       H  0.75936147  0.74148237  0.13143464     0.00800
H3390       H  0.77357269  0.90903507  0.17319688     0.04500
H3391       H  0.76874691  0.92448172  0.13763408     0.06400
H3392       H  0.78655561  0.90709583  0.14424331     0.07300
C3393       C  0.75432403  0.78405276  0.96839647    -0.22300
C3394       C  0.74640346  0.76639285  0.98992065     0.09600
C3395       C  0.74304722  0.78376731  0.01632658     0.10000
C3396       C  0.74856482  0.81777865  0.02147964    -0.17300
C3397       C  0.75741605  0.83451051  0.00086655    -0.27700
C3398       C  0.75975134  0.81822202  0.97338148     0.18400
C3399       C  0.74139800  0.72993859  0.98420840     0.12300
C3400       C  0.73396167  0.76604387  0.03931710    -0.12000
H3401       H  0.74680404  0.83020037  0.04254946     0.12600
C3402       C  0.76790029  0.83605516  0.94897748    -0.22900
H3403       H  0.75639775  0.77093442  0.94772930     0.08300
C3404       C  0.72879663  0.72396731  0.96825188     0.04600
C3405       C  0.72368894  0.68928777  0.96549142    -0.20100
C3406       C  0.73095116  0.66038370  0.97800769    -0.12400
C3407       C  0.74390588  0.66612300  0.99305707     0.13300
C3408       C  0.74897529  0.70111425  0.99606083    -0.22800
C3409       C  0.72059995  0.75421796  0.95466186    -0.05900
H3410       H  0.71382254  0.68466645  0.95363318     0.14800
C3411       C  0.75226550  0.63649580  0.00703516    -0.16100
H3412       H  0.75871137  0.70607330  0.00825300     0.09200
H3413       H  0.76115948  0.83662073  0.92904377     0.07000
H3414       H  0.77782247  0.82088970  0.94417497     0.08200
H3415       H  0.77079351  0.86398023  0.95405051     0.07300
H3416       H  0.73919034  0.74117557  0.04677471     0.02100
H3417       H  0.72328261  0.75958244  0.03013450     0.02600
H3418       H  0.73237458  0.78344938  0.05865547     0.06100
H3419       H  0.71087557  0.74472909  0.94311075     0.05100
H3420       H  0.72747903  0.76818954  0.93855550    -0.00700
H3421       H  0.71720722  0.77328395  0.97183982     0.00800
H3422       H  0.76316209  0.63544824  0.99736510     0.04500
H3423       H  0.74718099  0.61010911  0.00412338     0.06400
H3424       H  0.75320998  0.64157520  0.03083111     0.07300
C3425       C  0.95660124  0.09982667  0.65974050    -0.22300
C3426       C  0.95646847  0.10007923  0.62918200     0.09600
C3427       C  0.95571412  0.06757458  0.61373516     0.10000
C3428       C  0.95560363  0.03545323  0.62930220    -0.17300
C3429       C  0.95576679  0.03519189  0.65988966    -0.27700
C3430       C  0.95604663  0.06782231  0.67535622     0.18400
C3431       C  0.95741922  0.13468769  0.61385665     0.12300
C3432       C  0.95477938  0.06672434  0.58091174    -0.12000
H3433       H  0.95533458  0.01040533  0.61758311     0.12600
C3434       C  0.95634842  0.06913869  0.70826766    -0.22900
H3435       H  0.95729840  0.12485827  0.67140328     0.08300
C3436       C  0.94603818  0.15932105  0.61440235     0.04600
C3437       C  0.94732230  0.19114193  0.59870085    -0.20100
C3438       C  0.95964616  0.19885172  0.58223845    -0.12400
C3439       C  0.97111056  0.17423608  0.58196901     0.13300
C3440       C  0.96991594  0.14273405  0.59820543    -0.22800
C3441       C  0.93232889  0.15155951  0.63059317    -0.05900
H3442       H  0.93848610  0.20980922  0.59870591     0.14800
C3443       C  0.98425145  0.17986402  0.56337563    -0.16100
H3444       H  0.97864259  0.12375477  0.59813460     0.09200
H3445       H  0.95724734  0.09683164  0.71652261     0.07000
H3446       H  0.96567076  0.05391357  0.71656001     0.08200
H3447       H  0.94631469  0.05772994  0.71726883     0.07300
H3448       H  0.96459352  0.07828134  0.57111585     0.02100
H3449       H  0.94531891  0.08219870  0.57364789     0.02600
H3450       H  0.95365010  0.03914273  0.57252631     0.06100
H3451       H  0.92432109  0.17306325  0.62762255     0.05100
H3452       H  0.93445637  0.14910687  0.65430735    -0.00700
H3453       H  0.92758515  0.12638300  0.62240705     0.00800
H3454       H  0.99012395  0.20384339  0.57084574     0.04500
H3455       H  0.98110787  0.18311513  0.54016042     0.06400
H3456       H  0.99171966  0.15695427  0.56469092     0.07300
C3457       C  0.98681942  0.02050063  0.81918858    -0.22300
C3458       C  0.99778013  0.04279928  0.80904819     0.09600
C3459       C  0.00113001  0.04308671  0.77904363     0.10000
C3460       C  0.99328359  0.02146202  0.75975351    -0.17300
C3461       C  0.98203629  0.99951460  0.76962096    -0.27700
C3462       C  0.97888544  0.99888733  0.79998412     0.18400
C3463       C  0.00534949  0.06612375  0.83032666     0.12300
C3464       C  0.01293644  0.06640662  0.76739017    -0.12000
H3465       H  0.99579811  0.02227852  0.73666653     0.12600
C3466       C  0.96744327  0.97508289  0.81260176    -0.22900
H3467       H  0.98438088  0.02031018  0.84232821     0.08300
C3468       C  0.00002903  0.10004138  0.83758737     0.04600
C3469       C  0.00680227  0.12004102  0.85950969    -0.20100
C3470       C  0.01875719  0.10693475  0.87493709    -0.12400
C3471       C  0.02442874  0.07329812  0.86657936     0.13300
C3472       C  0.01763301  0.05348060  0.84441105    -0.22800
C3473       C  0.98697351  0.11481322  0.82261232    -0.05900
H3474       H  0.00231272  0.14564544  0.86529849     0.14800
C3475       C  0.03758727  0.05779602  0.88065059    -0.16100
H3476       H  0.02172672  0.02751069  0.83843617     0.09200
H3477       H  0.96719853  0.97634256  0.83682129     0.07000
H3478       H  0.96949486  0.94703613  0.80624202     0.08200
H3479       H  0.95674510  0.98345582  0.80472556     0.07300
H3480       H  0.02323015  0.05908079  0.77783676     0.02100
H3481       H  0.01054971  0.09471662  0.77220124     0.02600
H3482       H  0.01419913  0.06351721  0.74339725     0.06100
H3483       H  0.98418125  0.14172205  0.83083965     0.05100
H3484       H  0.97767206  0.09703560  0.82648466    -0.00700
H3485       H  0.98894787  0.11683036  0.79878067     0.00800
H3486       H  0.04097860  0.03270886  0.86986477     0.04500
H3487       H  0.03539122  0.05140578  0.90385377     0.06400
H3488       H  0.04661040  0.07693480  0.87901340     0.07300
C3489       C  0.94955055  0.84228429  0.83475980    -0.22300
C3490       C  0.93720784  0.85263090  0.84994574     0.09600
C3491       C  0.92615616  0.87070263  0.83528986     0.10000
C3492       C  0.92795505  0.87938013  0.80581253    -0.17300
C3493       C  0.94050404  0.87011790  0.79073723    -0.27700
C3494       C  0.95134686  0.85068893  0.80519639     0.18400
C3495       C  0.93656113  0.84631172  0.88165246     0.12300
C3496       C  0.91253991  0.88097221  0.85080581    -0.12000
H3497       H  0.91965178  0.89411065  0.79459036     0.12600
C3498       C  0.96513880  0.84054307  0.79017591    -0.22900
H3499       H  0.95798641  0.82851554  0.84638422     0.08300
C3500       C  0.93428531  0.81210607  0.89311910     0.04600
C3501       C  0.93492460  0.80717596  0.92333841    -0.20100
C3502       C  0.93781693  0.83567453  0.94244727    -0.12400
C3503       C  0.93928209  0.87046171  0.93079428     0.13300
C3504       C  0.93881170  0.87512116  0.90046225    -0.22800
C3505       C  0.93126657  0.78083180  0.87347636    -0.05900
H3506       H  0.93348920  0.78059197  0.93198722     0.14800
C3507       C  0.94161806  0.90277563  0.94971992    -0.16100
H3508       H  0.94043891  0.90135283  0.89121570     0.09200
H3509       H  0.97264704  0.82695264  0.80526174     0.07000
H3510       H  0.97055114  0.86474552  0.78171730     0.08200
H3511       H  0.96291734  0.82202291  0.77186140     0.07300
H3512       H  0.91493059  0.89969444  0.86887974     0.02100
H3513       H  0.90731695  0.85681759  0.85982257     0.02600
H3514       H  0.90485805  0.89417351  0.83585990     0.06100
H3515       H  0.92942278  0.75606312  0.88613371     0.05100
H3516       H  0.94047617  0.77619647  0.85863622    -0.00700
H3517       H  0.92154625  0.78621242  0.86029895     0.00800
H3518       H  0.94279653  0.92740714  0.93656312     0.04500
H3519       H  0.95148626  0.89968143  0.96284002     0.06400
H3520       H  0.93229411  0.90649522  0.96445270     0.07300
C3521       C  0.97245673  0.80998177  0.58432404    -0.22300
C3522       C  0.98290702  0.82633477  0.56696344     0.09600
C3523       C  0.98570534  0.86290904  0.57075658     0.10000
C3524       C  0.97876692  0.88170385  0.59328045    -0.17300
C3525       C  0.96895177  0.86492439  0.61214829    -0.27700
C3526       C  0.96540520  0.82867066  0.60680084     0.18400
C3527       C  0.99162552  0.80402968  0.54671205     0.12300
C3528       C  0.99636185  0.88179336  0.55155046    -0.12000
H3529       H  0.98149441  0.90936624  0.59694640     0.12600
C3530       C  0.95500262  0.80851342  0.62581709    -0.22900
H3531       H  0.97029628  0.78192282  0.58110490     0.08300
C3532       C  0.00430187  0.78725291  0.55626367     0.04600
C3533       C  0.01235515  0.76664579  0.53659208    -0.20100
C3534       C  0.00788128  0.76144607  0.50769676    -0.12400
C3535       C  0.99530551  0.77892682  0.49792682     0.13300
C3536       C  0.98730319  0.79975868  0.51763726    -0.22800
C3537       C  0.00922702  0.79067769  0.58739092    -0.05900
H3538       H  0.02204486  0.75388808  0.54399531     0.14800
C3539       C  0.99028768  0.77750662  0.46669187    -0.16100
H3540       H  0.97769468  0.81306649  0.51018741     0.09200
H3541       H  0.95879450  0.80836668  0.64876819     0.07000
H3542       H  0.95385146  0.78038635  0.61877341     0.08200
H3543       H  0.94426360  0.82101389  0.62458962     0.07300
H3544       H  0.99289956  0.87995309  0.52842949     0.02100
H3545       H  0.00706935  0.86935019  0.55382809     0.02600
H3546       H  0.99733428  0.91037483  0.55735077     0.06100
H3547       H  0.01935383  0.77599940  0.59129682     0.05100
H3548       H  0.00092968  0.77961277  0.60218686    -0.00700
H3549       H  0.01106217  0.81910153  0.59276116     0.00800
H3550       H  0.97956750  0.76481365  0.46572535     0.04500
H3551       H  0.99763360  0.76272453  0.45210864     0.06400
H3552       H  0.98947707  0.80497735  0.45796393     0.07300
C3553       C  0.01443890  0.70907427  0.71602122    -0.22300
C3554       C  0.00281866  0.72555011  0.72969150     0.09600
C3555       C  0.99293586  0.70463592  0.74570528     0.10000
C3556       C  0.99657375  0.66935328  0.75262798    -0.17300
C3557       C  0.00919255  0.65423142  0.74160142    -0.27700
C3558       C  0.01729122  0.67319590  0.72057789     0.18400
C3559       C  0.00074370  0.76395393  0.72463335     0.12300
C3560       C  0.97841331  0.71879374  0.75426949    -0.12000
H3561       H  0.98997016  0.65432783  0.76768908     0.12600
C3562       C  0.02927080  0.65647981  0.70325966    -0.22900
H3563       H  0.02137546  0.72434461  0.70173309     0.08300
C3564       C  0.00103177  0.78934974  0.74746257     0.04600
C3565       C  0.99673259  0.82442209  0.74146512    -0.20100
C3566       C  0.99348458  0.83469837  0.71284228    -0.12400
C3567       C  0.99602548  0.81082268  0.68965584     0.13300
C3568       C  0.99911617  0.77542479  0.69581984    -0.22800
C3569       C  0.00636189  0.77997507  0.77754854    -0.05900
H3570       H  0.99519004  0.84314469  0.75918133     0.14800
C3571       C  0.99486820  0.82172698  0.65818356    -0.16100
H3572       H  0.99991642  0.75648269  0.67802297     0.09200
H3573       H  0.02738164  0.66066571  0.67958598     0.07000
H3574       H  0.03964882  0.66883118  0.70930901     0.08200
H3575       H  0.02990380  0.62740367  0.70676878     0.07300
H3576       H  0.97248606  0.72658326  0.73429677     0.02100
H3577       H  0.97924941  0.74231464  0.76865529     0.02600
H3578       H  0.97197920  0.69837985  0.76590685     0.06100
H3579       H  0.00610797  0.80336511  0.79236010     0.05100
H3580       H  0.01760920  0.77066474  0.77596290    -0.00700
H3581       H  0.99989468  0.75866599  0.78769064     0.00800
H3582       H  0.00520830  0.81634368  0.64711950     0.04500
H3583       H  0.99260272  0.85046403  0.65564221     0.06400
H3584       H  0.98631473  0.80611902  0.64737139     0.07300
C3585       C  0.79554868  0.63473189  0.64905154    -0.22300
C3586       C  0.78443299  0.62791178  0.62951670     0.09600
C3587       C  0.77405135  0.65416727  0.62403999     0.10000
C3588       C  0.77498011  0.68693667  0.63859230    -0.17300
C3589       C  0.78612186  0.69408561  0.65841148    -0.27700
C3590       C  0.79661032  0.66737914  0.66359536     0.18400
C3591       C  0.78434759  0.59336842  0.61424754     0.12300
C3592       C  0.76209142  0.64761213  0.60271030    -0.12000
H3593       H  0.76693377  0.70703536  0.63445374     0.12600
C3594       C  0.80877645  0.67212523  0.68488859    -0.22900
H3595       H  0.80347615  0.61421440  0.65284982     0.08300
C3596       C  0.79346465  0.58735438  0.59027184     0.04600
C3597       C  0.79361931  0.55381859  0.57714716    -0.20100
C3598       C  0.78475303  0.52616024  0.58717444    -0.12400
C3599       C  0.77557814  0.53222648  0.61125160     0.13300
C3600       C  0.77557050  0.56586923  0.62466353    -0.22800
C3601       C  0.80287606  0.61649495  0.57827308    -0.05900
H3602       H  0.80048707  0.54944900  0.55838553     0.14800
C3603       C  0.76613884  0.50326856  0.62336626    -0.16100
H3604       H  0.76873590  0.57080368  0.64337144     0.09200
H3605       H  0.81595359  0.69384674  0.67744615     0.07000
H3606       H  0.81542563  0.64775953  0.68675731     0.08200
H3607       H  0.80448886  0.67815411  0.70696126     0.07300
H3608       H  0.75555862  0.62461627  0.61004912     0.02100
H3609       H  0.76661085  0.64178878  0.58079389     0.02600
H3610       H  0.75492849  0.67104498  0.60077578     0.06100
H3611       H  0.80913538  0.60741314  0.55903298     0.05100
H3612       H  0.81055364  0.62543747  0.59521406    -0.00700
H3613       H  0.79616752  0.63936288  0.57142566     0.00800
H3614       H  0.76035175  0.51216064  0.64326942     0.04500
H3615       H  0.77274148  0.47980943  0.62924482     0.06400
H3616       H  0.75799658  0.49541212  0.60699396     0.07300
C3617       C  0.76238035  0.87411378  0.57417201    -0.22300
C3618       C  0.75930882  0.91024704  0.57860366     0.09600
C3619       C  0.76367556  0.92671390  0.60477158     0.10000
C3620       C  0.77038946  0.90638700  0.62647271    -0.17300
C3621       C  0.77271059  0.86959106  0.62306308    -0.27700
C3622       C  0.76901391  0.85350416  0.59603846     0.18400
C3623       C  0.75075330  0.93009156  0.55654541     0.12300
C3624       C  0.76097079  0.96570197  0.61006708    -0.12000
H3625       H  0.77320572  0.91918270  0.64687143     0.12600
C3626       C  0.77208671  0.81487987  0.58986999    -0.22900
H3627       H  0.75918578  0.86176938  0.55381231     0.08300
C3628       C  0.75713179  0.94642143  0.53209191     0.04600
C3629       C  0.74866680  0.96707062  0.51318550    -0.20100
C3630       C  0.73385318  0.97168400  0.51788911    -0.12400
C3631       C  0.72746610  0.95455311  0.54230380     0.13300
C3632       C  0.73601522  0.93413359  0.56122296    -0.22800
C3633       C  0.77290634  0.94237775  0.52620013    -0.05900
H3634       H  0.75369208  0.97964311  0.49452175     0.14800
C3635       C  0.71178582  0.95845740  0.54935695    -0.16100
H3636       H  0.73121799  0.92158903  0.58016115     0.09200
H3637       H  0.76954770  0.80772879  0.56692858     0.07000
H3638       H  0.76547039  0.79761434  0.60413977     0.08200
H3639       H  0.78361365  0.80931814  0.59354814     0.07300
H3640       H  0.74929732  0.97111541  0.60966346     0.02100
H3641       H  0.76631605  0.98167430  0.59283243     0.02600
H3642       H  0.76515990  0.97450058  0.63157402     0.06100
H3643       H  0.77624809  0.95697794  0.50625449     0.05100
H3644       H  0.77553022  0.91383160  0.52310411    -0.00700
H3645       H  0.77912403  0.95295528  0.54492302     0.00800
H3646       H  0.70522503  0.94623201  0.53185630     0.04500
H3647       H  0.70905189  0.98702425  0.55165135     0.06400
H3648       H  0.70890811  0.94501679  0.57013778     0.07300
C3649       C  0.74010124  0.94591944  0.73827377    -0.22300
C3650       C  0.74886364  0.97482046  0.73048605     0.09600
C3651       C  0.76231971  0.96897894  0.71765734     0.10000
C3652       C  0.76703761  0.93417022  0.71395668    -0.17300
C3653       C  0.75862838  0.90515219  0.72283973    -0.27700
C3654       C  0.74487402  0.91079410  0.73446324     0.18400
C3655       C  0.74423385  0.01110105  0.73754830     0.12300
C3656       C  0.77176556  0.99945911  0.70830319    -0.12000
H3657       H  0.77754894  0.92951231  0.70461433     0.12600
C3658       C  0.73562642  0.88010325  0.74390585    -0.22900
H3659       H  0.72972588  0.95094152  0.74805583     0.08300
C3660       C  0.73491743  0.02996092  0.71915764     0.04600
C3661       C  0.73043905  0.06390821  0.72755331    -0.20100
C3662       C  0.73492994  0.07898961  0.75410106    -0.12400
C3663       C  0.74491767  0.06073190  0.77171025     0.13300
C3664       C  0.74950626  0.02690218  0.76305507    -0.22800
C3665       C  0.72944083  0.01388115  0.69118464    -0.05900
H3666       H  0.72272694  0.07794837  0.71417585     0.14800
C3667       C  0.75002326  0.07556315  0.80044834    -0.16100
H3668       H  0.75688239  0.01212880  0.77667811     0.09200
H3669       H  0.73331727  0.86271690  0.72489568     0.07000
H3670       H  0.72527212  0.88935223  0.75310824     0.08200
H3671       H  0.74124397  0.86438176  0.76088753     0.07300
H3672       H  0.77453131  0.01616783  0.72746255     0.02100
H3673       H  0.76607866  0.01597250  0.69194518     0.02600
H3674       H  0.78190514  0.98997701  0.69829284     0.06100
H3675       H  0.72222340  0.03237415  0.67936792     0.05100
H3676       H  0.72336099  0.98920127  0.69603179    -0.00700
H3677       H  0.73857642  0.00736605  0.67660751     0.00800
H3678       H  0.74077786  0.07994924  0.81523770     0.04500
H3679       H  0.75568858  0.10112556  0.79676372     0.06400
H3680       H  0.75754850  0.05719083  0.81157070     0.07300
C3681       C  0.82092956  0.86706879  0.83515569    -0.22300
C3682       C  0.81073388  0.85800360  0.85632456     0.09600
C3683       C  0.79911257  0.83584608  0.84896721     0.10000
C3684       C  0.79767394  0.82412745  0.82015458    -0.17300
C3685       C  0.80745819  0.83451663  0.79847299    -0.27700
C3686       C  0.81945185  0.85551599  0.80616196     0.18400
C3687       C  0.81160670  0.87423807  0.88553535     0.12300
C3688       C  0.78808777  0.82517123  0.87141742    -0.12000
H3689       H  0.78854537  0.80780419  0.81429221     0.12600
C3690       C  0.83083367  0.86512161  0.78418816    -0.22900
H3691       H  0.82986951  0.88388550  0.84124147     0.08300
C3692       C  0.81937798  0.85838021  0.90833916     0.04600
C3693       C  0.81818243  0.87238606  0.93660400    -0.20100
C3694       C  0.80925552  0.90165966  0.94253080    -0.12400
C3695       C  0.80193058  0.91839083  0.91910307     0.13300
C3696       C  0.80333382  0.90448520  0.89090592    -0.22800
C3697       C  0.82851302  0.82606250  0.90295171    -0.05900
H3698       H  0.82388152  0.85964345  0.95432320     0.14800
C3699       C  0.79196293  0.94953505  0.92350049    -0.16100
H3700       H  0.79741585  0.91627389  0.87302163     0.09200
H3701       H  0.83982478  0.87984074  0.79445916     0.07000
H3702       H  0.82629630  0.88235348  0.76689891     0.08200
H3703       H  0.83524803  0.84054517  0.77422147     0.07300
H3704       H  0.78266437  0.84915124  0.88022366     0.02100
H3705       H  0.79335897  0.81075473  0.88958867     0.02600
H3706       H  0.77976720  0.80746935  0.86199492     0.06100
H3707       H  0.83384613  0.81685351  0.92322680     0.05100
H3708       H  0.83692877  0.83245065  0.88663955    -0.00700
H3709       H  0.82178652  0.80398599  0.89453131     0.00800
H3710       H  0.78679000  0.95788490  0.90280197     0.04500
H3711       H  0.79803288  0.97276339  0.93187965     0.06400
H3712       H  0.78330509  0.94226467  0.93903455     0.07300
C3713       C  0.85451849  0.86096843  0.66289368    -0.22300
C3714       C  0.86406829  0.85729826  0.68618272     0.09600
C3715       C  0.86026357  0.83565991  0.71018057     0.10000
C3716       C  0.84666512  0.81969567  0.71097255    -0.17300
C3717       C  0.83669925  0.82511488  0.68847666    -0.27700
C3718       C  0.84094365  0.84497058  0.66353286     0.18400
C3719       C  0.87817396  0.87546082  0.68462105     0.12300
C3720       C  0.87049946  0.82956645  0.73506010    -0.12000
H3721       H  0.84354336  0.80451336  0.73004559     0.12600
C3722       C  0.83135596  0.84929111  0.63730030    -0.22900
H3723       H  0.85762724  0.87705539  0.64430813     0.08300
C3724       C  0.88898615  0.86335732  0.66556553     0.04600
C3725       C  0.90264395  0.87861682  0.66708188    -0.20100
C3726       C  0.90594516  0.90506871  0.68773144    -0.12400
C3727       C  0.89485273  0.91873883  0.70561270     0.13300
C3728       C  0.88103565  0.90401492  0.70351552    -0.22800
C3729       C  0.88640923  0.83286526  0.64484771    -0.05900
H3730       H  0.91108993  0.86815858  0.65327578     0.14800
C3731       C  0.89767335  0.94693079  0.72827860    -0.16100
H3732       H  0.87257872  0.91356580  0.71772144     0.09200
H3733       H  0.83710371  0.86193894  0.61876905     0.07000
H3734       H  0.82209843  0.86657490  0.64255800     0.08200
H3735       H  0.82753875  0.82282739  0.62986626     0.07300
H3736       H  0.87291517  0.85510688  0.74614314     0.02100
H3737       H  0.88058860  0.81780425  0.72662044     0.02600
H3738       H  0.86596964  0.81113800  0.75161257     0.06100
H3739       H  0.89623004  0.82577855  0.63245657     0.05100
H3740       H  0.87803465  0.84012741  0.62880713    -0.00700
H3741       H  0.88291889  0.80902182  0.65725401     0.00800
H3742       H  0.90163358  0.97149873  0.71753920     0.04500
H3743       H  0.90575614  0.93729042  0.74414847     0.06400
H3744       H  0.88782879  0.95385187  0.74066018     0.07300
C3745       C  0.73613939  0.71096817  0.79149450    -0.22300
C3746       C  0.74328706  0.68695320  0.80969842     0.09600
C3747       C  0.75825538  0.68321115  0.80688711     0.10000
C3748       C  0.76571280  0.70352098  0.78598433    -0.17300
C3749       C  0.75866894  0.72798324  0.76763472    -0.27700
C3750       C  0.74353309  0.73161583  0.77066072     0.18400
C3751       C  0.73495383  0.66660637  0.83204456     0.12300
C3752       C  0.76643172  0.65822397  0.82638359    -0.12000
H3753       H  0.77720461  0.70037124  0.78424248     0.12600
C3754       C  0.73487875  0.75679005  0.75212895    -0.22900
H3755       H  0.72464270  0.71366690  0.79376829     0.08300
C3756       C  0.72998870  0.68290191  0.85791887     0.04600
C3757       C  0.72286489  0.66232948  0.87908156    -0.20100
C3758       C  0.72073368  0.62548422  0.87548116    -0.12400
C3759       C  0.72533423  0.60941315  0.84901768     0.13300
C3760       C  0.73227746  0.63025081  0.82764387    -0.22800
C3761       C  0.73266064  0.72179378  0.86373861    -0.05900
H3762       H  0.71949146  0.67496766  0.89919782     0.14800
C3763       C  0.72284007  0.57052247  0.84284760    -0.16100
H3764       H  0.73592054  0.61797193  0.80755580     0.09200
H3765       H  0.73827904  0.78463507  0.75626038     0.07000
H3766       H  0.72326171  0.75519749  0.75716038     0.08200
H3767       H  0.73624233  0.75007270  0.72868905     0.07300
H3768       H  0.76269039  0.63053072  0.82291735     0.02100
H3769       H  0.76472851  0.66572917  0.84957468     0.02600
H3770       H  0.77810897  0.65902760  0.82185433     0.06100
H3771       H  0.72843267  0.73010673  0.88536823     0.05100
H3772       H  0.72732820  0.73816778  0.84681880    -0.00700
H3773       H  0.74434344  0.72721566  0.86336820     0.00800
H3774       H  0.72611198  0.56327507  0.82029689     0.04500
H3775       H  0.71129050  0.56417976  0.84529550     0.06400
H3776       H  0.72921520  0.55389897  0.85798966     0.07300
loop_ 
_geom_bond_atom_site_label_1 
_geom_bond_atom_site_label_2 
_geom_bond_distance 
_geom_bond_site_symmetry_2 
_ccdc_geom_bond_type 
Fe1          O17   2.039       .  S
Fe1           O7   2.110       .  S
Fe1          O14   2.122       .  S
Fe1           O6   2.040       .  S
Fe1          O12   1.929       .  S
Fe2           O5   2.019       .  S
Fe2           O9   2.092       .  S
Fe2          O13   2.026       .  S
Fe2          O18   2.098       .  S
Fe2          O12   1.921       .  S
Fe3          O21   2.105       .  S
Fe3           O8   2.067       .  S
Fe3          O15   2.062       .  S
Fe3           O4   2.098       .  S
Fe3          O12   1.940       .  S
O4           C11   1.278       .  A
O5           C19   1.259       .  A
O6           C11   1.267       .  A
O7           C10   1.280       .  A
O8           C20   1.272       .  A
O9           C22   1.272       .  A
C10          O15   1.270       .  A
C10        C3749   1.508       .  S
C11        C3589   1.487       .  S
O13          C16   1.262       .  A
O14          C16   1.281       .  A
C16        C3717   1.486       .  S
O17          C22   1.265       .  A
O18          C20   1.277       .  A
C19          O21   1.274       .  A
C19        C3653   1.462       .  S
C20        C3621   1.497       .  S
C22        C3685   1.475       .  S
Fe23         O39   2.065       .  S
Fe23         O29   2.069       .  S
Fe23         O36   2.080       .  S
Fe23         O28   2.067       .  S
Fe23         O34   1.967       .  S
Fe24         O27   2.036       .  S
Fe24         O31   2.055       .  S
Fe24         O35   2.042       .  S
Fe24         O40   2.065       .  S
Fe24         O34   1.956       .  S
Fe25         O43   2.077       .  S
Fe25         O30   2.093       .  S
Fe25         O37   2.081       .  S
Fe25         O26   2.066       .  S
Fe25         O34   1.964       .  S
O26          C33   1.274   1_565  A
O27          C41   1.263       .  A
O28          C33   1.272   1_565  A
O29          C32   1.268       .  A
O30          C42   1.276       .  A
O31          C44   1.269       .  A
C32          O37   1.271       .  A
C32        C3461   1.497       .  S
C33        C3429   1.474       .  S
O35          C38   1.264       .  A
O36          C38   1.270       .  A
C38        C3726   1.484       .  S
O39          C44   1.271       .  A
O40          C42   1.270       .  A
C41          O43   1.268       .  A
C41        C3566   1.460       .  S
C42        C3525   1.498       .  S
C44        C3493   1.471       .  S
Fe45         O61   2.039   1_554  S
Fe45         O51   2.106       .  S
Fe45         O58   2.109       .  S
Fe45         O50   2.048       .  S
Fe45         O56   1.941       .  S
Fe46         O49   2.032       .  S
Fe46         O53   2.083   1_554  S
Fe46         O57   2.045       .  S
Fe46         O62   2.091       .  S
Fe46         O56   1.939       .  S
Fe47         O65   2.088       .  S
Fe47         O52   2.061       .  S
Fe47         O59   2.054       .  S
Fe47         O48   2.085       .  S
Fe47         O56   1.941       .  S
O48          C55   1.274       .  A
O49          C63   1.264       .  A
O50          C55   1.271       .  A
O51          C54   1.277   1_554  A
O52          C64   1.270       .  A
O53          C66   1.273       .  A
C54          O59   1.268   1_556  A
C54        C3301   1.496   1_565  S
C55        C3269   1.485   1_565  S
O57          C60   1.268       .  A
O58          C60   1.277       .  A
C60        C3333   1.501       .  S
O61          C66   1.265       .  A
O62          C64   1.275       .  A
C63          O65   1.274       .  A
C63        C3397   1.469       .  S
C64        C3374   1.487       .  S
C66        C3694   1.482       .  S
Fe67         O83   2.032   1_554  S
Fe67         O73   2.097       .  S
Fe67         O80   2.100       .  S
Fe67         O72   2.038       .  S
Fe67         O78   1.935       .  S
Fe68         O71   2.033       .  S
Fe68         O75   2.090   1_554  S
Fe68         O79   2.050       .  S
Fe68         O84   2.094       .  S
Fe68         O78   1.934       .  S
Fe69         O87   2.096       .  S
Fe69         O74   2.059       .  S
Fe69         O81   2.056       .  S
Fe69         O70   2.096       .  S
Fe69         O78   1.942       .  S
O70          C77   1.278       .  A
O71          C85   1.264       .  A
O72          C77   1.266       .  A
O73          C76   1.275   1_554  A
O74          C86   1.269       .  A
O75          C88   1.272       .  A
C76          O81   1.268   1_556  A
C76        C3246   1.491       .  S
C77        C3141   1.486       .  S
O79          C82   1.267       .  A
O80          C82   1.277       .  A
C82        C3342   1.491       .  S
O83          C88   1.266       .  A
O84          C86   1.276       .  A
C85          O87   1.275       .  A
C85        C3214   1.468       .  S
C86        C3173   1.489       .  S
C88        C3502   1.484       .  S
Fe89        O105   2.110       .  S
Fe89         O95   2.046       .  S
Fe89        O102   2.027       .  S
Fe89         O94   2.095       .  S
Fe89        O100   1.953       .  S
Fe90         O93   2.086       .  S
Fe90         O97   2.042       .  S
Fe90        O101   2.106       .  S
Fe90        O106   2.008       .  S
Fe90        O100   1.941       .  S
Fe91        O109   2.066       .  S
Fe91         O96   2.096       .  S
Fe91        O103   2.095       .  S
Fe91         O92   2.066       .  S
Fe91        O100   1.949       .  S
O92          C99   1.267       .  A
O93         C107   1.275       .  A
O94          C99   1.270       .  A
O95          C98   1.274       .  A
O96         C108   1.274       .  A
O97         C110   1.261       .  A
C98         O103   1.280       .  A
C98        C3013   1.468       .  S
C99        C3109   1.507       .  S
O101        C104   1.280       .  A
O102        C104   1.267       .  A
C104       C3045   1.478       .  S
O105        C110   1.272       .  A
O106        C108   1.261       .  A
C107        O109   1.270       .  A
C107       C3237   1.491       .  S
C108       C3557   1.471       .  S
C110       C3077   1.504       .  S
Fe111       O127   2.117       .  S
Fe111       O117   2.055       .  S
Fe111       O124   2.050       .  S
Fe111       O116   2.106       .  S
Fe111       O122   1.950       .  S
Fe112       O115   2.086       .  S
Fe112       O119   2.040       .  S
Fe112       O123   2.092       .  S
Fe112       O128   2.027       .  S
Fe112       O122   1.940       .  S
Fe113       O131   2.067       .  S
Fe113       O118   2.089       .  S
Fe113       O125   2.084       .  S
Fe113       O114   2.056       .  S
Fe113       O122   1.950       .  S
O114        C121   1.268       .  A
O115        C129   1.272       .  A
O116        C121   1.276       .  A
O117        C120   1.272       .  A
O118        C130   1.273       .  A
O119        C132   1.265       .  A
C120        O125   1.275       .  A
C120       C2853   1.476       .  S
C121       C2990   1.497       .  S
O123        C126   1.274       .  A
O124        C126   1.269       .  A
C126       C2885   1.495       .  S
O127        C132   1.278       .  A
O128        C130   1.264       .  A
C129        O131   1.271       .  A
C129       C2958   1.501       .  S
C130       C2917   1.472       .  S
C132       C3086   1.502       .  S
Fe133       O149   2.114       .  S
Fe133       O139   2.046       .  S
Fe133       O146   2.045       .  S
Fe133       O138   2.109       .  S
Fe133       O144   1.939       .  S
Fe134       O137   2.099       .  S
Fe134       O141   2.037       .  S
Fe134       O145   2.081       .  S
Fe134       O150   2.038       .  S
Fe134       O144   1.931       .  S
Fe135       O153   2.067       .  S
Fe135       O140   2.095       .  S
Fe135       O147   2.082       .  S
Fe135       O136   2.062       .  S
Fe135       O144   1.951       .  S
O136        C143   1.273       .  A
O137        C151   1.276       .  A
O138        C143   1.280       .  A
O139        C142   1.266       .  A
O140        C152   1.272       .  A
O141        C154   1.265       .  A
C142        O147   1.273       .  A
C142       C2734   1.476       .  S
C143       C3534   1.488       .  S
O145        C148   1.271       .  A
O146        C148   1.264       .  A
C148       C3054   1.485       .  S
O149        C154   1.281       .  A
O150        C152   1.260       .  A
C151        O153   1.274       .  A
C151       C2789   1.505       .  S
C152       C2830   1.463       .  S
C154       C2757   1.496       .  S
Fe155       O171   2.100       .  S
Fe155       O161   2.051       .  S
Fe155       O168   2.042       .  S
Fe155       O160   2.097       .  S
Fe155       O166   1.945       .  S
Fe156       O159   2.095       .  S
Fe156       O163   2.044       .  S
Fe156       O167   2.102       .  S
Fe156       O172   2.024       .  S
Fe156       O166   1.939       .  S
Fe157       O175   2.056       .  S
Fe157       O162   2.085       .  S
Fe157       O169   2.088       .  S
Fe157       O158   2.057       .  S
Fe157       O166   1.941       .  S
O158        C165   1.267       .  A
O159        C173   1.276       .  A
O160        C165   1.272       .  A
O161        C164   1.272       .  A
O162        C174   1.274       .  A
O163        C176   1.262       .  A
C164        O169   1.277       .  A
C164       C2606   1.463       .  S
C165       C2629   1.496       .  S
O167        C170   1.277       .  A
O168        C170   1.271       .  A
C170       C2894   1.481       .  S
O171        C176   1.274       .  A
O172        C174   1.263       .  A
C173        O175   1.267       .  A
C173       C2661   1.500       .  S
C174       C2693   1.462       .  S
C176       C2766   1.491       .  S
Fe177       O193   2.108       .  S
Fe177       O183   2.052       .  S
Fe177       O190   2.036       .  S
Fe177       O182   2.104       .  S
Fe177       O188   1.946       .  S
Fe178       O181   2.102       .  S
Fe178       O185   2.044       .  S
Fe178       O189   2.100       .  S
Fe178       O194   2.021       .  S
Fe178       O188   1.940       .  S
Fe179       O197   2.061       .  S
Fe179       O184   2.089       .  S
Fe179       O191   2.086       .  S
Fe179       O180   2.060       .  S
Fe179       O188   1.944       .  S
O180        C187   1.267       .  A
O181        C195   1.277       .  A
O182        C187   1.275       .  A
O183        C186   1.272       .  A
O184        C196   1.273       .  A
O185        C198   1.264       .  A
C186        O191   1.276       .  A
C186       C2478   1.479       .  S
C187       C2565   1.498       .  S
O189        C192   1.276       .  A
O190        C192   1.268       .  A
C192       C2501   1.485       .  S
O193        C198   1.277       .  A
O194        C196   1.262       .  A
C195        O197   1.269       .  A
C195       C3310   1.501       .  S
C196       C3662   1.467       .  S
C198       C2542   1.494       .  S
Fe199       O215   2.116       .  S
Fe199       O205   2.059   1_545  S
Fe199       O212   2.041       .  S
Fe199       O204   2.099   1_545  S
Fe199       O210   1.950       .  S
Fe200       O203   2.091       .  S
Fe200       O207   2.038       .  S
Fe200       O211   2.100       .  S
Fe200       O216   2.010       .  S
Fe200       O210   1.940       .  S
Fe201       O219   2.059       .  S
Fe201       O206   2.096       .  S
Fe201       O213   2.097       .  S
Fe201       O202   2.048       .  S
Fe201       O210   1.947       .  S
O202        C209   1.264       .  A
O203        C217   1.275       .  A
O204        C209   1.272   1_565  A
O205        C208   1.276       .  A
O206        C218   1.275       .  A
O207        C220   1.261       .  A
C208        O213   1.280   1_565  A
C208       C2318   1.478       .  S
C209       C2446   1.492   1_545  S
O211        C214   1.275       .  A
O212        C214   1.269       .  A
C214       C2405   1.487       .  S
O215        C220   1.278       .  A
O216        C218   1.263       .  A
C217        O219   1.267       .  A
C217       C2373   1.500       .  S
C218       C2341   1.477       .  S
C220       C2533   1.503       .  S
Fe221       O237   2.115       .  S
Fe221       O227   2.051   1_545  S
Fe221       O234   2.047       .  S
Fe221       O226   2.108   1_545  S
Fe221       O232   1.940       .  S
Fe222       O225   2.101       .  S
Fe222       O229   2.047       .  S
Fe222       O233   2.089       .  S
Fe222       O238   2.044       .  S
Fe222       O232   1.933       .  S
Fe223       O241   2.061       .  S
Fe223       O228   2.094       .  S
Fe223       O235   2.082   1_545  S
Fe223       O224   2.064       .  S
Fe223       O232   1.952       .  S
O224        C231   1.274   1_545  A
O225        C239   1.277       .  A
O226        C231   1.279       .  A
O227        C230   1.269       .  A
O228        C240   1.271       .  A
O229        C242   1.267       .  A
C230        O235   1.272       .  A
C230       C2190   1.483       .  S
C231       C3630   1.500       .  S
O233        C236   1.272       .  A
O234        C236   1.267       .  A
C236       C2510   1.484       .  S
O237        C242   1.281       .  A
O238        C240   1.262       .  A
C239        O241   1.273       .  A
C239       C2245   1.502       .  S
C240       C2286   1.465       .  S
C242       C2213   1.494       .  S
Fe243       O259   2.117       .  S
Fe243       O249   2.049       .  S
Fe243       O256   2.033       .  S
Fe243       O248   2.111       .  S
Fe243       O254   1.945       .  S
Fe244       O247   2.115       .  S
Fe244       O251   2.048       .  S
Fe244       O255   2.100       .  S
Fe244       O260   2.041       .  S
Fe244       O254   1.938       .  S
Fe245       O263   2.069       .  S
Fe245       O250   2.095       .  S
Fe245       O257   2.089       .  S
Fe245       O246   2.071       .  S
Fe245       O254   1.953       .  S
O246        C253   1.274       .  A
O247        C261   1.280       .  A
O248        C253   1.280       .  A
O249        C252   1.267       .  A
O250        C262   1.271       .  A
O251        C264   1.266       .  A
C252        O257   1.275       .  A
C252       C2062   1.475       .  S
C253       C2085   1.494       .  S
O255        C258   1.275       .  A
O256        C258   1.264       .  A
C258       C2414   1.484       .  S
O259        C264   1.281       .  A
O260        C262   1.261       .  A
C261        O263   1.275       .  A
C261       C2117   1.510       .  S
C262       C2149   1.465       .  S
C264       C2222   1.504       .  S
Fe265       O281   2.098       .  S
Fe265       O271   2.046       .  S
Fe265       O278   2.049       .  S
Fe265       O270   2.086       .  S
Fe265       O276   1.937       .  S
Fe266       O269   2.094       .  S
Fe266       O273   2.039       .  S
Fe266       O277   2.084       .  S
Fe266       O282   2.040       .  S
Fe266       O276   1.932       .  S
Fe267       O285   2.071       .  S
Fe267       O272   2.091       .  S
Fe267       O279   2.083       .  S
Fe267       O268   2.076       .  S
Fe267       O276   1.951       .  S
O268        C275   1.275       .  A
O269        C283   1.275       .  A
O270        C275   1.274       .  A
O271        C274   1.268       .  A
O272        C284   1.271       .  A
O273        C286   1.266       .  A
C274        O279   1.273       .  A
C274       C2181   1.472       .  S
C275       C3365   1.505       .  S
O277        C280   1.270       .  A
O278        C280   1.265       .  A
C280       C1925   1.473       .  S
O281        C286   1.278       .  A
O282        C284   1.261       .  A
C283        O285   1.275       .  A
C283       C1989   1.505       .  S
C284       C2030   1.462       .  S
C286       C1966   1.489       .  S
Fe287       O303   2.105       .  S
Fe287       O293   2.052       .  S
Fe287       O300   2.041       .  S
Fe287       O292   2.102       .  S
Fe287       O298   1.943       .  S
Fe288       O291   2.097       .  S
Fe288       O295   2.040       .  S
Fe288       O299   2.098       .  S
Fe288       O304   2.020       .  S
Fe288       O298   1.934       .  S
Fe289       O307   2.064       .  S
Fe289       O294   2.089       .  S
Fe289       O301   2.088       .  S
Fe289       O290   2.059       .  S
Fe289       O298   1.940       .  S
O290        C297   1.269       .  A
O291        C305   1.275       .  A
O292        C297   1.274       .  A
O293        C296   1.271       .  A
O294        C306   1.274       .  A
O295        C308   1.263       .  A
C296        O301   1.277       .  A
C296       C2053   1.477       .  S
C297       C1861   1.507       .  S
O299        C302   1.275       .  A
O300        C302   1.266       .  A
C302       C1902   1.493       .  S
O303        C308   1.277       .  A
O304        C306   1.262       .  A
C305        O307   1.271       .  A
C305       C1829   1.507       .  S
C306       C1806   1.462       .  S
C308       C1957   1.498       .  S
Fe309       O325   2.112       .  S
Fe309       O315   2.049       .  S
Fe309       O322   2.043   1_556  S
Fe309       O314   2.109       .  S
Fe309       O320   1.939       .  S
Fe310       O313   2.104       .  S
Fe310       O317   2.046       .  S
Fe310       O321   2.095       .  S
Fe310       O326   2.028       .  S
Fe310       O320   1.933       .  S
Fe311       O329   2.067       .  S
Fe311       O316   2.099       .  S
Fe311       O323   2.088       .  S
Fe311       O312   2.074       .  S
Fe311       O320   1.950       .  S
O312        C319   1.274       .  A
O313        C327   1.278       .  A
O314        C319   1.278       .  A
O315        C318   1.269       .  A
O316        C328   1.273       .  A
O317        C330   1.267       .  A
C318        O323   1.275       .  A
C318       C2469   1.469       .  S
C319       C1765   1.506   1_556  S
O321        C324   1.274   1_556  A
O322        C324   1.268       .  A
C324       C1934   1.494       .  S
O325        C330   1.277       .  A
O326        C328   1.261       .  A
C327        O329   1.272       .  A
C327       C3758   1.499       .  S
C328       C3406   1.466       .  S
C330       C1733   1.499       .  S
Fe331       O347   2.119       .  S
Fe331       O337   2.054       .  S
Fe331       O344   2.047   1_556  S
Fe331       O336   2.105       .  S
Fe331       O342   1.936       .  S
Fe332       O335   2.120       .  S
Fe332       O339   2.039       .  S
Fe332       O343   2.096       .  S
Fe332       O348   2.026       .  S
Fe332       O342   1.926       .  S
Fe333       O351   2.060       .  S
Fe333       O338   2.106       .  S
Fe333       O345   2.096       .  S
Fe333       O334   2.060       .  S
Fe333       O342   1.948       .  S
O334        C341   1.273       .  A
O335        C349   1.282       .  A
O336        C341   1.278       .  A
O337        C340   1.270       .  A
O338        C350   1.271       .  A
O339        C352   1.267       .  A
C340        O345   1.277       .  A
C340       C2309   1.486       .  S
C341       C1637   1.501   1_556  S
O343        C346   1.275   1_556  A
O344        C346   1.266       .  A
C346       C1893   1.482       .  S
O347        C352   1.280       .  A
O348        C350   1.255       .  A
C349        O351   1.272       .  A
C349       C1701   1.507       .  S
C350       C1669   1.463       .  S
C352       C1742   1.503       .  S
Fe353       O369   2.036       .  S
Fe353       O359   2.106       .  S
Fe353       O366   2.120       .  S
Fe353       O358   2.051       .  S
Fe353       O364   1.945       .  S
Fe354       O357   2.012       .  S
Fe354       O361   2.102       .  S
Fe354       O365   2.042       .  S
Fe354       O370   2.096       .  S
Fe354       O364   1.939       .  S
Fe355       O373   2.093       .  S
Fe355       O360   2.064       .  S
Fe355       O367   2.048       .  S
Fe355       O356   2.090       .  S
Fe355       O364   1.948       .  S
O356        C363   1.278       .  A
O357        C371   1.262       .  A
O358        C363   1.272       .  A
O359        C362   1.275       .  A
O360        C372   1.269       .  A
O361        C374   1.275       .  A
C362        O367   1.264       .  A
C362       C2670   1.488       .  S
C363       C1486   1.474       .  S
O365        C368   1.263       .  A
O366        C368   1.279       .  A
C368       C1605   1.496       .  S
O369        C374   1.266       .  A
O370        C372   1.276       .  A
C371        O373   1.274       .  A
C371       C1509   1.467       .  S
C372       C1550   1.493       .  S
C374       C1582   1.482       .  S
Fe375       O391   2.043       .  S
Fe375       O381   2.112       .  S
Fe375       O388   2.126       .  S
Fe375       O380   2.043       .  S
Fe375       O386   1.933       .  S
Fe376       O379   2.023       .  S
Fe376       O383   2.082       .  S
Fe376       O387   2.043       .  S
Fe376       O392   2.095       .  S
Fe376       O386   1.929       .  S
Fe377       O395   2.115       .  S
Fe377       O382   2.063       .  S
Fe377       O389   2.071       .  S
Fe377       O378   2.096       .  S
Fe377       O386   1.953       .  S
O378        C385   1.277   1_565  A
O379        C393   1.257       .  A
O380        C385   1.269   1_565  A
O381        C384   1.279       .  A
O382        C394   1.270       .  A
O383        C396   1.269       .  A
C384        O389   1.273       .  A
C384       C2126   1.497   1_565  S
C385       C1413   1.477       .  S
O387        C390   1.269       .  A
O388        C390   1.281       .  A
C390       C1614   1.508       .  S
O391        C396   1.264       .  A
O392        C394   1.275       .  A
C393        O395   1.276       .  A
C393       C1797   1.475       .  S
C394       C1646   1.488       .  S
C396       C1445   1.462       .  S
Fe397       O413   2.040       .  S
Fe397       O403   2.099       .  S
Fe397       O410   2.096       .  S
Fe397       O402   2.033       .  S
Fe397       O408   1.928       .  S
Fe398       O401   2.027       .  S
Fe398       O405   2.097       .  S
Fe398       O409   2.047       .  S
Fe398       O414   2.108       .  S
Fe398       O408   1.924       .  S
Fe399       O417   2.099       .  S
Fe399       O404   2.061       .  S
Fe399       O411   2.066       .  S
Fe399       O400   2.094       .  S
Fe399       O408   1.949       .  S
O400        C407   1.276   1_565  A
O401        C415   1.259       .  A
O402        C407   1.264   1_565  A
O403        C406   1.276       .  A
O404        C416   1.272       .  A
O405        C418   1.275       .  A
C406        O411   1.271       .  A
C406       C1349   1.480   1_565  S
C407       C1317   1.479       .  S
O409        C412   1.268       .  A
O410        C412   1.276       .  A
C412       C1390   1.488       .  S
O413        C418   1.265       .  A
O414        C416   1.281       .  A
C415        O417   1.271       .  A
C415       C2702   1.465       .  S
C416       C2981   1.499       .  S
C418       C1573   1.485       .  S
Fe419       O435   2.039       .  S
Fe419       O425   2.099       .  S
Fe419       O432   2.102       .  S
Fe419       O424   2.035       .  S
Fe419       O430   1.942       .  S
Fe420       O423   2.027       .  S
Fe420       O427   2.088       .  S
Fe420       O431   2.043       .  S
Fe420       O436   2.081       .  S
Fe420       O430   1.940       .  S
Fe421       O439   2.100       .  S
Fe421       O426   2.064       .  S
Fe421       O433   2.057       .  S
Fe421       O422   2.095       .  S
Fe421       O430   1.946       .  S
O422        C429   1.278       .  A
O423        C437   1.266       .  A
O424        C429   1.269       .  A
O425        C428   1.274       .  A
O426        C438   1.268       .  A
O427        C440   1.272       .  A
C428        O433   1.268       .  A
C428       C1838   1.497       .  S
C429       C1285   1.478       .  S
O431        C434   1.265       .  A
O432        C434   1.278       .  A
C434       C1381   1.493       .  S
O435        C440   1.264       .  A
O436        C438   1.271       .  A
C437        O439   1.278       .  A
C437       C2158   1.475       .  S
C438       C2437   1.491       .  S
C440       C1454   1.481       .  S
Fe441       O457   2.031       .  S
Fe441       O447   2.088       .  S
Fe441       O454   2.092       .  S
Fe441       O446   2.031       .  S
Fe441       O452   1.946       .  S
Fe442       O445   2.008       .  S
Fe442       O449   2.099       .  S
Fe442       O453   2.045       .  S
Fe442       O458   2.088       .  S
Fe442       O452   1.946       .  S
Fe443       O461   2.103       .  S
Fe443       O448   2.080       .  S
Fe443       O455   2.065       .  S
Fe443       O444   2.106       .  S
Fe443       O452   1.956       .  S
O444        C451   1.282       .  A
O445        C459   1.263       .  A
O446        C451   1.268       .  A
O447        C450   1.270       .  A
O448        C460   1.272       .  A
O449        C462   1.275       .  A
C450        O455   1.267       .  A
C450       C2254   1.491       .  S
C451       C3278   1.477       .  S
O453        C456   1.265       .  A
O454        C456   1.271       .  A
C456       C1262   1.495       .  S
O457        C462   1.266       .  A
O458        C460   1.274       .  A
C459        O461   1.277       .  A
C459       C2021   1.472       .  S
C460       C1774   1.501       .  S
C462       C1221   1.473       .  S
Fe463       O479   2.041       .  S
Fe463       O469   2.092       .  S
Fe463       O476   2.108       .  S
Fe463       O468   2.042       .  S
Fe463       O474   1.938       .  S
Fe464       O467   2.023       .  S
Fe464       O471   2.097       .  S
Fe464       O475   2.039       .  S
Fe464       O480   2.095       .  S
Fe464       O474   1.933       .  S
Fe465       O483   2.109       .  S
Fe465       O470   2.059       .  S
Fe465       O477   2.068       .  S
Fe465       O466   2.097       .  S
Fe465       O474   1.947       .  S
O466        C473   1.278       .  A
O467        C481   1.261       .  A
O468        C473   1.271       .  A
O469        C472   1.274       .  A
O470        C482   1.270       .  A
O471        C484   1.273       .  A
C472        O477   1.271       .  A
C472       C2798   1.491       .  S
C473       C3150   1.479       .  S
O475        C478   1.263       .  A
O476        C478   1.278       .  A
C478       C1253   1.490       .  S
O479        C484   1.266       .  A
O480        C482   1.274       .  A
C481        O483   1.277       .  A
C481       C1166   1.467       .  S
C482       C1198   1.492       .  S
C484       C1125   1.467       .  S
Fe485       O501   2.036       .  S
Fe485       O491   2.105       .  S
Fe485       O498   2.103       .  S
Fe485       O490   2.037       .  S
Fe485       O496   1.943       .  S
Fe486       O489   2.015       .  S
Fe486       O493   2.103       .  S
Fe486       O497   2.047       .  S
Fe486       O502   2.100       .  S
Fe486       O496   1.937       .  S
Fe487       O505   2.098       .  S
Fe487       O492   2.065       .  S
Fe487       O499   2.063       .  S
Fe487       O488   2.102       .  S
Fe487       O496   1.945       .  S
O488        C495   1.279       .  A
O489        C503   1.262       .  A
O490        C495   1.271       .  A
O491        C494   1.272       .  A
O492        C504   1.272       .  A
O493        C506   1.279       .  A
C494        O499   1.268       .  A
C494       C1998   1.503       .  S
C495       C3598   1.477       .  S
O497        C500   1.265       .  A
O498        C500   1.274       .  A
C500       C1093   1.498       .  S
O501        C506   1.267       .  A
O502        C504   1.277       .  A
C503        O505   1.275       .  A
C503       C2277   1.473       .  S
C504       C2574   1.500       .  S
C506       C1230   1.492       .  S
Fe507       O523   2.047       .  S
Fe507       O513   2.110       .  S
Fe507       O520   2.118       .  S
Fe507       O512   2.043       .  S
Fe507       O518   1.943       .  S
Fe508       O511   2.017       .  S
Fe508       O515   2.096       .  S
Fe508       O519   2.038       .  S
Fe508       O524   2.093       .  S
Fe508       O518   1.935       .  S
Fe509       O527   2.106       .  S
Fe509       O514   2.066       .  S
Fe509       O521   2.052       .  S
Fe509       O510   2.098       .  S
Fe509       O518   1.940       .  S
O510        C517   1.279       .  A
O511        C525   1.265       .  A
O512        C517   1.271       .  A
O513        C516   1.277       .  A
O514        C526   1.268       .  A
O515        C528   1.272       .  A
C516        O521   1.265       .  A
C516       C1070   1.508       .  S
C517       C3438   1.480       .  S
O519        C522   1.264       .  A
O520        C522   1.280       .  A
C522       C1102   1.492       .  S
O523        C528   1.268       .  A
O524        C526   1.272       .  A
C525        O527   1.279       .  A
C525       C2821   1.476       .  S
C526       C3118   1.485       .  S
C528       C1134   1.495       .  S
Fe529       O545   2.103       .  S
Fe529       O535   2.058   1_545  S
Fe529       O542   2.047       .  S
Fe529       O534   2.091   1_545  S
Fe529       O540   1.943       .  S
Fe530       O533   2.099       .  S
Fe530       O537   2.046       .  S
Fe530       O541   2.099       .  S
Fe530       O546   2.017       .  S
Fe530       O540   1.940       .  S
Fe531       O549   2.062       .  S
Fe531       O536   2.089       .  S
Fe531       O543   2.085   1_545  S
Fe531       O532   2.060       .  S
Fe531       O540   1.946       .  S
O532        C539   1.269   1_545  A
O533        C547   1.277       .  A
O534        C539   1.273       .  A
O535        C538   1.272       .  A
O536        C548   1.273       .  A
O537        C550   1.267       .  A
C538        O543   1.275       .  A
C538       C2725   1.472       .  S
C539       C3182   1.502       .  S
O541        C544   1.276       .  A
O542        C544   1.266       .  A
C544       C1006   1.498       .  S
O545        C550   1.276       .  A
O546        C548   1.261       .  A
C547        O549   1.270       .  A
C547       C1061   1.492       .  S
C548       C1157   1.464       .  S
C550       C1038   1.496       .  S
Fe551       O567   2.105       .  S
Fe551       O557   2.050       .  S
Fe551       O564   2.040       .  S
Fe551       O556   2.097       .  S
Fe551       O562   1.943       .  S
Fe552       O555   2.106       .  S
Fe552       O559   2.047       .  S
Fe552       O563   2.092       .  S
Fe552       O568   2.033       .  S
Fe552       O562   1.934       .  S
Fe553       O571   2.063       .  S
Fe553       O558   2.083       .  S
Fe553       O565   2.079       .  S
Fe553       O554   2.065       .  S
Fe553       O562   1.951       .  S
O554        C561   1.272       .  A
O555        C569   1.279       .  A
O556        C561   1.277       .  A
O557        C560   1.270       .  A
O558        C570   1.266       .  A
O559        C572   1.268       .  A
C560        O565   1.272       .  A
C560       C2597   1.481       .  S
C561        C933   1.486       .  S
O563        C566   1.274       .  A
O564        C566   1.265       .  A
C566        C974   1.467       .  S
O567        C572   1.276       .  A
O568        C570   1.258       .  A
C569        O571   1.273       .  A
C569       C1358   1.487       .  S
C570       C1518   1.456       .  S
C572       C1029   1.503       .  S
Fe573       O589   2.113       .  S
Fe573       O579   2.048       .  S
Fe573       O586   2.050   1_556  S
Fe573       O578   2.102       .  S
Fe573       O584   1.929       .  S
Fe574       O577   2.116       .  S
Fe574       O581   2.034       .  S
Fe574       O585   2.092       .  S
Fe574       O590   2.020       .  S
Fe574       O584   1.921       .  S
Fe575       O593   2.056       .  S
Fe575       O580   2.110       .  S
Fe575       O587   2.088       .  S
Fe575       O576   2.066       .  S
Fe575       O584   1.946       .  S
O576        C583   1.273       .  A
O577        C591   1.280       .  A
O578        C583   1.278       .  A
O579        C582   1.270       .  A
O580        C592   1.272       .  A
O581        C594   1.266       .  A
C582        O587   1.276       .  A
C582       C3022   1.477       .  S
C583       C1189   1.487   1_556  S
O585        C588   1.274   1_556  A
O586        C588   1.266       .  A
C588        C997   1.488       .  S
O589        C594   1.280       .  A
O590        C592   1.254       .  A
C591        O593   1.272       .  A
C591       C3470   1.504       .  S
C592       C3205   1.466       .  S
C594        C910   1.485       .  S
Fe595       O611   2.099       .  S
Fe595       O601   2.053   1_545  S
Fe595       O608   2.047   1_556  S
Fe595       O600   2.088   1_545  S
Fe595       O606   1.953       .  S
Fe596       O599   2.079       .  S
Fe596       O603   2.045       .  S
Fe596       O607   2.086       .  S
Fe596       O612   2.028       .  S
Fe596       O606   1.946       .  S
Fe597       O615   2.079       .  S
Fe597       O602   2.083       .  S
Fe597       O609   2.086       .  S
Fe597       O598   2.070       .  S
Fe597       O606   1.955       .  S
O598        C605   1.270       .  A
O599        C613   1.273       .  A
O600        C605   1.271   1_565  A
O601        C604   1.271       .  A
O602        C614   1.272       .  A
O603        C616   1.264       .  A
C604        O609   1.276   1_565  A
C604       C2862   1.472       .  S
C605       C1541   1.502   1_546  S
O607        C610   1.273   1_556  A
O608        C610   1.266       .  A
C610        C965   1.481       .  S
O611        C616   1.275       .  A
O612        C614   1.264       .  A
C613        O615   1.273       .  A
C613        C869   1.504       .  S
C614        C837   1.467       .  S
C616        C901   1.496       .  S
Fe617       O633   2.037       .  S
Fe617       O623   2.107       .  S
Fe617       O630   2.111       .  S
Fe617       O622   2.038       .  S
Fe617       O628   1.934       .  S
Fe618       O621   2.027       .  S
Fe618       O625   2.095       .  S
Fe618       O629   2.046       .  S
Fe618       O634   2.106       .  S
Fe618       O628   1.928       .  S
Fe619       O637   2.101       .  S
Fe619       O624   2.060       .  S
Fe619       O631   2.064       .  S
Fe619       O620   2.086       .  S
Fe619       O628   1.948       .  S
O620        C627   1.275       .  A
O621        C635   1.260       .  A
O622        C627   1.268       .  A
O623        C626   1.279       .  A
O624        C636   1.270       .  A
O625        C638   1.275       .  A
C626        O631   1.271       .  A
C626        C878   1.501       .  S
C627       C1326   1.474       .  S
O629        C632   1.267       .  A
O630        C632   1.280       .  A
C632        C805   1.488       .  S
O633        C638   1.264       .  A
O634        C636   1.279       .  A
C635        O637   1.273       .  A
C635       C2926   1.465       .  S
C636       C2638   1.498       .  S
C638        C773   1.487       .  S
Fe639       O655   2.039       .  S
Fe639       O645   2.102       .  S
Fe639       O652   2.105       .  S
Fe639       O644   2.040       .  S
Fe639       O650   1.937       .  S
Fe640       O643   2.037       .  S
Fe640       O647   2.085       .  S
Fe640       O651   2.050       .  S
Fe640       O656   2.097       .  S
Fe640       O650   1.933       .  S
Fe641       O659   2.088       .  S
Fe641       O646   2.077       .  S
Fe641       O653   2.076       .  S
Fe641       O642   2.087       .  S
Fe641       O650   1.953       .  S
O642        C649   1.276       .  A
O643        C657   1.261       .  A
O644        C649   1.266       .  A
O645        C648   1.278       .  A
O646        C658   1.276       .  A
O647        C660   1.271       .  A
C648        O653   1.273       .  A
C648       C1710   1.504       .  S
C649       C1294   1.484       .  S
O651        C654   1.270       .  A
O652        C654   1.277       .  A
C654        C814   1.503       .  S
O655        C660   1.264       .  A
O656        C658   1.276       .  A
C657        O659   1.270       .  A
C657       C2350   1.457       .  S
C658       C2094   1.508       .  S
C660        C741   1.476       .  S
Fe661       O677   2.043   1_554  S
Fe661       O667   2.105   1_554  S
Fe661       O674   2.115       .  S
Fe661       O666   2.051       .  S
Fe661       O672   1.934       .  S
Fe662       O665   2.027   1_554  S
Fe662       O669   2.093   1_554  S
Fe662       O673   2.044       .  S
Fe662       O678   2.107       .  S
Fe662       O672   1.930       .  S
Fe663       O681   2.099       .  S
Fe663       O668   2.059       .  S
Fe663       O675   2.061   1_554  S
Fe663       O664   2.092       .  S
Fe663       O672   1.943       .  S
O664        C671   1.277       .  A
O665        C679   1.260   1_556  A
O666        C671   1.272       .  A
O667        C670   1.276       .  A
O668        C680   1.271       .  A
O669        C682   1.273       .  A
C670        O675   1.271       .  A
C670       C2949   1.498       .  S
C671       C1477   1.469       .  S
O673        C676   1.267       .  A
O674        C676   1.278       .  A
C676        C709   1.503       .  S
O677        C682   1.268       .  A
O678        C680   1.278       .  A
C679        O681   1.272       .  A
C679        C846   1.472       .  S
C680        C942   1.484       .  S
C682        C782   1.480       .  S
Fe683       O699   2.030   1_554  S
Fe683       O689   2.106   1_554  S
Fe683       O696   2.113       .  S
Fe683       O688   2.049       .  S
Fe683       O694   1.942       .  S
Fe684       O687   2.025   1_554  S
Fe684       O691   2.091   1_554  S
Fe684       O695   2.048       .  S
Fe684       O700   2.106       .  S
Fe684       O694   1.938       .  S
Fe685       O703   2.090       .  S
Fe685       O690   2.061       .  S
Fe685       O697   2.054   1_554  S
Fe685       O686   2.088       .  S
Fe685       O694   1.944       .  S
O686        C693   1.274       .  A
O687        C701   1.261   1_556  A
O688        C693   1.271       .  A
O689        C692   1.277       .  A
O690        C702   1.271       .  A
O691        C704   1.273       .  A
C692        O697   1.268       .  A
C692       C2382   1.493       .  S
C693       C1422   1.486       .  S
O695        C698   1.268       .  A
O696        C698   1.280       .  A
C698        C718   1.496       .  S
O699        C704   1.264       .  A
O700        C702   1.279       .  A
C701        O703   1.272       .  A
C701       C1678   1.467   1_554  S
C702       C1870   1.490       .  S
C704        C750   1.476       .  S
C705        C706   1.401       .  A
C705        C710   1.410       .  A
C705        H715   1.084       .  S
C706        C711   1.490       .  S
C706        C707   1.408       .  A
C707        C708   1.406       .  A
C707        C712   1.506       .  S
C708        C709   1.413       .  A
C708        H713   1.083       .  S
C709        C710   1.424       .  A
C710        C714   1.507       .  S
C711        C716   1.412       .  A
C711        C720   1.401       .  A
C712        H728   1.110       .  S
C712        H729   1.110       .  S
C712        H730   1.111       .  S
C714        H725   1.110       .  S
C714        H726   1.111       .  S
C714        H727   1.110       .  S
C716        C717   1.407       .  A
C716        C721   1.507       .  S
C717        C718   1.408       .  A
C717        H722   1.084       .  S
C718        C719   1.423       .  A
C719        C720   1.409       .  A
C719        C723   1.507       .  S
C720        H724   1.084       .  S
C721        H731   1.111   1_554  S
C721        H732   1.110       .  S
C721        H733   1.110       .  S
C723        H734   1.110       .  S
C723        H735   1.107       .  S
C723        H736   1.111       .  S
C737        C738   1.398       .  A
C737        C742   1.398       .  A
C737        H747   1.085       .  S
C738        C743   1.472       .  S
C738        C739   1.408       .  A
C739        C740   1.403       .  A
C739        C744   1.506       .  S
C740        C741   1.406       .  A
C740        H745   1.084       .  S
C741        C742   1.418       .  A
C742        C746   1.509       .  S
C743        C748   1.407       .  A
C743        C752   1.402       .  A
C744        H760   1.110       .  S
C744        H761   1.110       .  S
C744        H762   1.111       .  S
C746        H757   1.111       .  S
C746        H758   1.111       .  S
C746        H759   1.108       .  S
C748        C749   1.396       .  A
C748        C753   1.509       .  S
C749        C750   1.406       .  A
C749        H754   1.085       .  S
C750        C751   1.415       .  A
C751        C752   1.405       .  A
C751        C755   1.507       .  S
C752        H756   1.084       .  S
C753        H763   1.111       .  S
C753        H764   1.110       .  S
C753        H765   1.110       .  S
C755        H766   1.109       .  S
C755        H767   1.111       .  S
C755        H768   1.111       .  S
C769        C770   1.397       .  A
C769        C774   1.401       .  A
C769        H779   1.085       .  S
C770        C775   1.477       .  S
C770        C771   1.408       .  A
C771        C772   1.404       .  A
C771        C776   1.506       .  S
C772        C773   1.408       .  A
C772        H777   1.084       .  S
C773        C774   1.423       .  A
C774        C778   1.511       .  S
C775        C780   1.409       .  A
C775        C784   1.402       .  A
C776        H792   1.110       .  S
C776        H793   1.110       .  S
C776        H794   1.111       .  S
C778        H789   1.111       .  S
C778        H790   1.110       .  S
C778        H791   1.111       .  S
C780        C781   1.397       .  A
C780        C785   1.509       .  S
C781        C782   1.405       .  A
C781        H786   1.084       .  S
C782        C783   1.417       .  A
C783        C784   1.408       .  A
C783        C787   1.508       .  S
C784        H788   1.084       .  S
C785        H795   1.111       .  S
C785        H796   1.110       .  S
C785        H797   1.109       .  S
C787        H798   1.109       .  S
C787        H799   1.111       .  S
C787        H800   1.111       .  S
C801        C802   1.402       .  A
C801        C806   1.409       .  A
C801        H811   1.084       .  S
C802        C807   1.487       .  S
C802        C803   1.412       .  A
C803        C804   1.404       .  A
C803        C808   1.507       .  S
C804        C805   1.405       .  A
C804        H809   1.084       .  S
C805        C806   1.420       .  A
C806        C810   1.508       .  S
C807        C812   1.407       .  A
C807        C816   1.401       .  A
C808        H824   1.110       .  S
C808        H825   1.110       .  S
C808        H826   1.111       .  S
C810        H821   1.111       .  S
C810        H822   1.109       .  S
C810        H823   1.110       .  S
C812        C813   1.405       .  A
C812        C817   1.506       .  S
C813        C814   1.414       .  A
C813        H818   1.083       .  S
C814        C815   1.424       .  A
C815        C816   1.408       .  A
C815        C819   1.508       .  S
C816        H820   1.084       .  S
C817        H827   1.111       .  S
C817        H828   1.110       .  S
C817        H829   1.110       .  S
C819        H830   1.111       .  S
C819        H831   1.110       .  S
C819        H832   1.110       .  S
C833        C834   1.399       .  A
C833        C838   1.399       .  A
C833        H843   1.085       .  S
C834        C839   1.469       .  S
C834        C835   1.406   1_556  A
C835        C836   1.399       .  A
C835        C840   1.507       .  S
C836        C837   1.406   1_554  A
C836        H841   1.085       .  S
C837        C838   1.419       .  A
C838        C842   1.511       .  S
C839        C844   1.403   1_556  A
C839        C848   1.404       .  A
C840        H856   1.110       .  S
C840        H857   1.110       .  S
C840        H858   1.111       .  S
C842        H853   1.110       .  S
C842        H854   1.111       .  S
C842        H855   1.102       .  S
C844        C845   1.393       .  A
C844        C849   1.508       .  S
C845        C846   1.409       .  A
C845        H850   1.085       .  S
C846        C847   1.413   1_554  A
C847        C848   1.405       .  A
C847        C851   1.506       .  S
C848        H852   1.084       .  S
C849        H859   1.111       .  S
C849        H860   1.110   1_554  S
C849        H861   1.110       .  S
C851        H862   1.111       .  S
C851        H863   1.106       .  S
C851        H864   1.110       .  S
C865        C866   1.404       .  A
C865        C870   1.413       .  A
C865        H875   1.084       .  S
C866        C871   1.494       .  S
C866        C867   1.409       .  A
C867        C868   1.405       .  A
C867        C872   1.507       .  S
C868        C869   1.412       .  A
C868        H873   1.083       .  S
C869        C870   1.423       .  A
C870        C874   1.507       .  S
C871        C876   1.412       .  A
C871        C880   1.401       .  A
C872        H888   1.110       .  S
C872        H889   1.110       .  S
C872        H890   1.111       .  S
C874        H885   1.111       .  S
C874        H886   1.110       .  S
C874        H887   1.109       .  S
C876        C877   1.408       .  A
C876        C881   1.506       .  S
C877        C878   1.409       .  A
C877        H882   1.084       .  S
C878        C879   1.424       .  A
C879        C880   1.410       .  A
C879        C883   1.508       .  S
C880        H884   1.084       .  S
C881        H891   1.111       .  S
C881        H892   1.110       .  S
C881        H893   1.111       .  S
C883        H894   1.111       .  S
C883        H895   1.111       .  S
C883        H896   1.110       .  S
C897        C898   1.398       .  A
C897        C902   1.406       .  A
C897        H907   1.084       .  S
C898        C903   1.484       .  S
C898        C899   1.410       .  A
C899        C900   1.405       .  A
C899        C904   1.508       .  S
C900        C901   1.410       .  A
C900        H905   1.083       .  S
C901        C902   1.425       .  A
C902        C906   1.509       .  S
C903        C908   1.412       .  A
C903        C912   1.400       .  A
C904        H920   1.110       .  S
C904        H921   1.109       .  S
C904        H922   1.111       .  S
C906        H917   1.109       .  S
C906        H918   1.111       .  S
C906        H919   1.110       .  S
C908        C909   1.404       .  A
C908        C913   1.508       .  S
C909        C910   1.405       .  A
C909        H914   1.084       .  S
C910        C911   1.420       .  A
C911        C912   1.405       .  A
C911        C915   1.508       .  S
C912        H916   1.084       .  S
C913        H923   1.111       .  S
C913        H924   1.110       .  S
C913        H925   1.109       .  S
C915        H926   1.111       .  S
C915        H927   1.108       .  S
C915        H928   1.110       .  S
C929        C930   1.403       .  A
C929        C934   1.408       .  A
C929        H939   1.084       .  S
C930        C935   1.488       .  S
C930        C931   1.411       .  A
C931        C932   1.404       .  A
C931        C936   1.507       .  S
C932        C933   1.406       .  A
C932        H937   1.084       .  S
C933        C934   1.420       .  A
C934        C938   1.508       .  S
C935        C940   1.413       .  A
C935        C944   1.399       .  A
C936        H952   1.110       .  S
C936        H953   1.110       .  S
C936        H954   1.111       .  S
C938        H949   1.110       .  S
C938        H950   1.111       .  S
C938        H951   1.106       .  S
C940        C941   1.411       .  A
C940        C945   1.505       .  S
C941        C942   1.405       .  A
C941        H946   1.084       .  S
C942        C943   1.421       .  A
C943        C944   1.402       .  A
C943        C947   1.508       .  S
C944        H948   1.085       .  S
C945        H955   1.111       .  S
C945        H956   1.110       .  S
C945        H957   1.110       .  S
C947        H958   1.111       .  S
C947        H959   1.101       .  S
C947        H960   1.110       .  S
C961        C962   1.399       .  A
C961        C966   1.403       .  A
C961        H971   1.084       .  S
C962        C967   1.478       .  S
C962        C963   1.410       .  A
C963        C964   1.402       .  A
C963        C968   1.507       .  S
C964        C965   1.406       .  A
C964        H969   1.084       .  S
C965        C966   1.418       .  A
C966        C970   1.508       .  S
C967        C972   1.410       .  A
C967        C976   1.400       .  A
C968        H984   1.110       .  S
C968        H985   1.110       .  S
C968        H986   1.111       .  S
C970        H981   1.110       .  S
C970        H982   1.111       .  S
C970        H983   1.108       .  S
C972        C973   1.405       .  A
C972        C977   1.505       .  S
C973        C974   1.403       .  A
C973        H978   1.084       .  S
C974        C975   1.414       .  A
C975        C976   1.398       .  A
C975        C979   1.508       .  S
C976        H980   1.085       .  S
C977        H987   1.111       .  S
C977        H988   1.110       .  S
C977        H989   1.110       .  S
C979        H990   1.110       .  S
C979        H991   1.105       .  S
C979        H992   1.110       .  S
C993        C994   1.400       .  A
C993        C998   1.404       .  A
C993       H1003   1.084       .  S
C994        C999   1.486       .  S
C994        C995   1.412       .  A
C995        C996   1.406       .  A
C995       C1000   1.506       .  S
C996        C997   1.407       .  A
C996       H1001   1.084       .  S
C997        C998   1.421       .  A
C998       C1002   1.510       .  S
C999       C1004   1.410       .  A
C999       C1008   1.398       .  A
C1000      H1016   1.109       .  S
C1000      H1017   1.110       .  S
C1000      H1018   1.111       .  S
C1002      H1013   1.111       .  S
C1002      H1014   1.110       .  S
C1002      H1015   1.110       .  S
C1004      C1005   1.407       .  A
C1004      C1009   1.506       .  S
C1005      C1006   1.410       .  A
C1005      H1010   1.083       .  S
C1006      C1007   1.426       .  A
C1007      C1008   1.404       .  A
C1007      C1011   1.509       .  S
C1008      H1012   1.084       .  S
C1009      H1019   1.111       .  S
C1009      H1020   1.109       .  S
C1009      H1021   1.110       .  S
C1011      H1022   1.111       .  S
C1011      H1023   1.111       .  S
C1011      H1024   1.109       .  S
C1025      C1026   1.402       .  A
C1025      C1030   1.410       .  A
C1025      H1035   1.084       .  S
C1026      C1031   1.487       .  S
C1026      C1027   1.407       .  A
C1027      C1028   1.404       .  A
C1027      C1032   1.507       .  S
C1028      C1029   1.413       .  A
C1028      H1033   1.083       .  S
C1029      C1030   1.424       .  A
C1030      C1034   1.508       .  S
C1031      C1036   1.409       .  A
C1031      C1040   1.400       .  A
C1032      H1048   1.110       .  S
C1032      H1049   1.109       .  S
C1032      H1050   1.111       .  S
C1034      H1045   1.111       .  S
C1034      H1046   1.110       .  S
C1034      H1047   1.110       .  S
C1036      C1037   1.406       .  A
C1036      C1041   1.506       .  S
C1037      C1038   1.411       .  A
C1037      H1042   1.084       .  S
C1038      C1039   1.423       .  A
C1039      C1040   1.406       .  A
C1039      C1043   1.508       .  S
C1040      H1044   1.084       .  S
C1041      H1051   1.111       .  S
C1041      H1052   1.110       .  S
C1041      H1053   1.109       .  S
C1043      H1054   1.111       .  S
C1043      H1055   1.110       .  S
C1043      H1056   1.111       .  S
C1057      C1058   1.404       .  A
C1057      C1062   1.411       .  A
C1057      H1067   1.084       .  S
C1058      C1063   1.492       .  S
C1058      C1059   1.411       .  A
C1059      C1060   1.405       .  A
C1059      C1064   1.507       .  S
C1060      C1061   1.407       .  A
C1060      H1065   1.084       .  S
C1061      C1062   1.419       .  A
C1062      C1066   1.507       .  S
C1063      C1068   1.411   1_455  A
C1063      C1072   1.398       .  A
C1064      H1080   1.110       .  S
C1064      H1081   1.110   1_455  S
C1064      H1082   1.111       .  S
C1066      H1077   1.111       .  S
C1066      H1078   1.110       .  S
C1066      H1079   1.109       .  S
C1068      C1069   1.410       .  A
C1068      C1073   1.506       .  S
C1069      C1070   1.411       .  A
C1069      H1074   1.083       .  S
C1070      C1071   1.430       .  A
C1071      C1072   1.408   1_655  A
C1071      C1075   1.510   1_655  S
C1072      H1076   1.084       .  S
C1073      H1083   1.111       .  S
C1073      H1084   1.110       .  S
C1073      H1085   1.110       .  S
C1075      H1086   1.111       .  S
C1075      H1087   1.110       .  S
C1075      H1088   1.110       .  S
C1089      C1090   1.402       .  A
C1089      C1094   1.406       .  A
C1089      H1099   1.084       .  S
C1090      C1095   1.491       .  S
C1090      C1091   1.411       .  A
C1091      C1092   1.408       .  A
C1091      C1096   1.506       .  S
C1092      C1093   1.410       .  A
C1092      H1097   1.084       .  S
C1093      C1094   1.423       .  A
C1094      C1098   1.509       .  S
C1095      C1100   1.414       .  A
C1095      C1104   1.401       .  A
C1096      H1112   1.109       .  S
C1096      H1113   1.110       .  S
C1096      H1114   1.111       .  S
C1098      H1109   1.110       .  S
C1098      H1110   1.111       .  S
C1098      H1111   1.110       .  S
C1100      C1101   1.405       .  A
C1100      C1105   1.508       .  S
C1101      C1102   1.407       .  A
C1101      H1106   1.084       .  S
C1102      C1103   1.422       .  A
C1103      C1104   1.408       .  A
C1103      C1107   1.509       .  S
C1104      H1108   1.084       .  S
C1105      H1115   1.111       .  S
C1105      H1116   1.109       .  S
C1105      H1117   1.110       .  S
C1107      H1118   1.108       .  S
C1107      H1119   1.111       .  S
C1107      H1120   1.111       .  S
C1121      C1122   1.400       .  A
C1121      C1126   1.397       .  A
C1121      H1131   1.085       .  S
C1122      C1127   1.479       .  S
C1122      C1123   1.411       .  A
C1123      C1124   1.408       .  A
C1123      C1128   1.505       .  S
C1124      C1125   1.404       .  A
C1124      H1129   1.084       .  S
C1125      C1126   1.414       .  A
C1126      C1130   1.510       .  S
C1127      C1132   1.407       .  A
C1127      C1136   1.399       .  A
C1128      H1144   1.110       .  S
C1128      H1145   1.110       .  S
C1128      H1146   1.111       .  S
C1130      H1141   1.111       .  S
C1130      H1142   1.110       .  S
C1130      H1143   1.107       .  S
C1132      C1133   1.401       .  A
C1132      C1137   1.507       .  S
C1133      C1134   1.410       .  A
C1133      H1138   1.083       .  S
C1134      C1135   1.424       .  A
C1135      C1136   1.406       .  A
C1135      C1139   1.508       .  S
C1136      H1140   1.084       .  S
C1137      H1147   1.111       .  S
C1137      H1148   1.110       .  S
C1137      H1149   1.110       .  S
C1139      H1150   1.108       .  S
C1139      H1151   1.110       .  S
C1139      H1152   1.111       .  S
C1153      C1154   1.397   1_455  A
C1153      C1158   1.395       .  A
C1153      H1163   1.085       .  S
C1154      C1159   1.467       .  S
C1154      C1155   1.410       .  A
C1155      C1156   1.400   1_655  A
C1155      C1160   1.507       .  S
C1156      C1157   1.403       .  A
C1156      H1161   1.084   1_455  S
C1157      C1158   1.416       .  A
C1158      C1162   1.510       .  S
C1159      C1164   1.412   1_655  A
C1159      C1168   1.391       .  A
C1160      H1176   1.110       .  S
C1160      H1177   1.109       .  S
C1160      H1178   1.111       .  S
C1162      H1173   1.111       .  S
C1162      H1174   1.111       .  S
C1162      H1175   1.109       .  S
C1164      C1165   1.407   1_455  A
C1164      C1169   1.505       .  S
C1165      C1166   1.402       .  A
C1165      H1170   1.084       .  S
C1166      C1167   1.419       .  A
C1167      C1168   1.391       .  A
C1167      C1171   1.509       .  S
C1168      H1172   1.085       .  S
C1169      H1179   1.111       .  S
C1169      H1180   1.110       .  S
C1169      H1181   1.109       .  S
C1171      H1182   1.111       .  S
C1171      H1183   1.108       .  S
C1171      H1184   1.108       .  S
C1185      C1186   1.403       .  A
C1185      C1190   1.405   1_655  A
C1185      H1195   1.084       .  S
C1186      C1191   1.495       .  S
C1186      C1187   1.415       .  A
C1187      C1188   1.408   1_655  A
C1187      C1192   1.507       .  S
C1188      C1189   1.405       .  A
C1188      H1193   1.084       .  S
C1189      C1190   1.420       .  A
C1190      C1194   1.507   1_554  S
C1191      C1196   1.413       .  A
C1191      C1200   1.405       .  A
C1192      H1208   1.109       .  S
C1192      H1209   1.110       .  S
C1192      H1210   1.111       .  S
C1194      H1205   1.110       .  S
C1194      H1206   1.111       .  S
C1194      H1207   1.103       .  S
C1196      C1197   1.405       .  A
C1196      C1201   1.508   1_655  S
C1197      C1198   1.408       .  A
C1197      H1202   1.084       .  S
C1198      C1199   1.419       .  A
C1199      C1200   1.409       .  A
C1199      C1203   1.506       .  S
C1200      H1204   1.084       .  S
C1201      H1211   1.111       .  S
C1201      H1212   1.109       .  S
C1201      H1213   1.110       .  S
C1203      H1214   1.110       .  S
C1203      H1215   1.105       .  S
C1203      H1216   1.110       .  S
C1217      C1218   1.402       .  A
C1217      C1222   1.406       .  A
C1217      H1227   1.084       .  S
C1218      C1223   1.473       .  S
C1218      C1219   1.409       .  A
C1219      C1220   1.395       .  A
C1219      C1224   1.510       .  S
C1220      C1221   1.403       .  A
C1220      H1225   1.083       .  S
C1221      C1222   1.417       .  A
C1222      C1226   1.508       .  S
C1223      C1228   1.407       .  A
C1223      C1232   1.393       .  A
C1224      H1240   1.110       .  S
C1224      H1241   1.109       .  S
C1224      H1242   1.111       .  S
C1226      H1237   1.111       .  S
C1226      H1238   1.110       .  S
C1226      H1239   1.106       .  S
C1228      C1229   1.404       .  A
C1228      C1233   1.506       .  S
C1229      C1230   1.409       .  A
C1229      H1234   1.083       .  S
C1230      C1231   1.425       .  A
C1231      C1232   1.399       .  A
C1231      C1235   1.505       .  S
C1232      H1236   1.085       .  S
C1233      H1243   1.111       .  S
C1233      H1244   1.110       .  S
C1233      H1245   1.109       .  S
C1235      H1246   1.109       .  S
C1235      H1247   1.110       .  S
C1235      H1248   1.111       .  S
C1249      C1250   1.400       .  A
C1249      C1254   1.406       .  A
C1249      H1259   1.084       .  S
C1250      C1255   1.486       .  S
C1250      C1251   1.413       .  A
C1251      C1252   1.404       .  A
C1251      C1256   1.508       .  S
C1252      C1253   1.406       .  A
C1252      H1257   1.084       .  S
C1253      C1254   1.422       .  A
C1254      C1258   1.508       .  S
C1255      C1260   1.409       .  A
C1255      C1264   1.400       .  A
C1256      H1272   1.109       .  S
C1256      H1273   1.110       .  S
C1256      H1274   1.111       .  S
C1258      H1269   1.111       .  S
C1258      H1270   1.107       .  S
C1258      H1271   1.110       .  S
C1260      C1261   1.405       .  A
C1260      C1265   1.506       .  S
C1261      C1262   1.411       .  A
C1261      H1266   1.084       .  S
C1262      C1263   1.423       .  A
C1263      C1264   1.404       .  A
C1263      C1267   1.509       .  S
C1264      H1268   1.084       .  S
C1265      H1275   1.111       .  S
C1265      H1276   1.109       .  S
C1265      H1277   1.110       .  S
C1267      H1278   1.111       .  S
C1267      H1279   1.110       .  S
C1267      H1280   1.110       .  S
C1281      C1282   1.402       .  A
C1281      C1286   1.404       .  A
C1281      H1291   1.084       .  S
C1282      C1287   1.472       .  S
C1282      C1283   1.406       .  A
C1283      C1284   1.396       .  A
C1283      C1288   1.508       .  S
C1284      C1285   1.408       .  A
C1284      H1289   1.084       .  S
C1285      C1286   1.415       .  A
C1286      C1290   1.506       .  S
C1287      C1292   1.407       .  A
C1287      C1296   1.396       .  A
C1288      H1304   1.110       .  S
C1288      H1305   1.110       .  S
C1288      H1306   1.111       .  S
C1290      H1301   1.109       .  S
C1290      H1302   1.111       .  S
C1290      H1303   1.110       .  S
C1292      C1293   1.400       .  A
C1292      C1297   1.507       .  S
C1293      C1294   1.407       .  A
C1293      H1298   1.084       .  S
C1294      C1295   1.424       .  A
C1295      C1296   1.400       .  A
C1295      C1299   1.510       .  S
C1296      H1300   1.085       .  S
C1297      H1307   1.111       .  S
C1297      H1308   1.110       .  S
C1297      H1309   1.110       .  S
C1299      H1310   1.111       .  S
C1299      H1311   1.110       .  S
C1299      H1312   1.110       .  S
C1313      C1314   1.395       .  A
C1313      C1318   1.399       .  A
C1313      H1323   1.085       .  S
C1314      C1319   1.469       .  S
C1314      C1315   1.407       .  A
C1315      C1316   1.400       .  A
C1315      C1320   1.506       .  S
C1316      C1317   1.406       .  A
C1316      H1321   1.084       .  S
C1317      C1318   1.423       .  A
C1318      C1322   1.510       .  S
C1319      C1324   1.406       .  A
C1319      C1328   1.399       .  A
C1320      H1336   1.110       .  S
C1320      H1337   1.110       .  S
C1320      H1338   1.111       .  S
C1322      H1333   1.111       .  S
C1322      H1334   1.111       .  S
C1322      H1335   1.110       .  S
C1324      C1325   1.397       .  A
C1324      C1329   1.507       .  S
C1325      C1326   1.406       .  A
C1325      H1330   1.084       .  S
C1326      C1327   1.415       .  A
C1327      C1328   1.401       .  A
C1327      C1331   1.506       .  S
C1328      H1332   1.084       .  S
C1329      H1339   1.111       .  S
C1329      H1340   1.110       .  S
C1329      H1341   1.110       .  S
C1331      H1342   1.111       .  S
C1331      H1343   1.109       .  S
C1331      H1344   1.109       .  S
C1345      C1346   1.403       .  A
C1345      C1350   1.407       .  A
C1345      H1355   1.084       .  S
C1346      C1351   1.488       .  S
C1346      C1347   1.414       .  A
C1347      C1348   1.406   1_545  A
C1347      C1352   1.506   1_545  S
C1348      C1349   1.402   1_565  A
C1348      H1353   1.082       .  S
C1349      C1350   1.414       .  A
C1350      C1354   1.507       .  S
C1351      C1356   1.412       .  A
C1351      C1360   1.397       .  A
C1352      H1368   1.110   1_565  S
C1352      H1369   1.109   1_565  S
C1352      H1370   1.111       .  S
C1354      H1365   1.111       .  S
C1354      H1366   1.110       .  S
C1354      H1367   1.111       .  S
C1356      C1357   1.410       .  A
C1356      C1361   1.505       .  S
C1357      C1358   1.406       .  A
C1357      H1362   1.084       .  S
C1358      C1359   1.424       .  A
C1359      C1360   1.403       .  A
C1359      C1363   1.509       .  S
C1360      H1364   1.085       .  S
C1361      H1371   1.111       .  S
C1361      H1372   1.110       .  S
C1361      H1373   1.109       .  S
C1363      H1374   1.110       .  S
C1363      H1375   1.101       .  S
C1363      H1376   1.111       .  S
C1377      C1378   1.399       .  A
C1377      C1382   1.407       .  A
C1377      H1387   1.084       .  S
C1378      C1383   1.483       .  S
C1378      C1379   1.410       .  A
C1379      C1380   1.401       .  A
C1379      C1384   1.508       .  S
C1380      C1381   1.407       .  A
C1380      H1385   1.083       .  S
C1381      C1382   1.424       .  A
C1382      C1386   1.509       .  S
C1383      C1388   1.408       .  A
C1383      C1392   1.401       .  A
C1384      H1400   1.109       .  S
C1384      H1401   1.110       .  S
C1384      H1402   1.111       .  S
C1386      H1397   1.111       .  S
C1386      H1398   1.109       .  S
C1386      H1399   1.111       .  S
C1388      C1389   1.406       .  A
C1388      C1393   1.505       .  S
C1389      C1390   1.409       .  A
C1389      H1394   1.084       .  S
C1390      C1391   1.420       .  A
C1391      C1392   1.403       .  A
C1391      C1395   1.509       .  S
C1392      H1396   1.085       .  S
C1393      H1403   1.111       .  S
C1393      H1404   1.110       .  S
C1393      H1405   1.110       .  S
C1395      H1406   1.111       .  S
C1395      H1407   1.110       .  S
C1395      H1408   1.111       .  S
C1409      C1410   1.397       .  A
C1409      C1414   1.399       .  A
C1409      H1419   1.084       .  S
C1410      C1415   1.475       .  S
C1410      C1411   1.410       .  A
C1411      C1412   1.405       .  A
C1411      C1416   1.506       .  S
C1412      C1413   1.405       .  A
C1412      H1417   1.084       .  S
C1413      C1414   1.419       .  A
C1414      C1418   1.509       .  S
C1415      C1420   1.407       .  A
C1415      C1424   1.399       .  A
C1416      H1432   1.110       .  S
C1416      H1433   1.110       .  S
C1416      H1434   1.111       .  S
C1418      H1429   1.109       .  S
C1418      H1430   1.111       .  S
C1418      H1431   1.111       .  S
C1420      C1421   1.399       .  A
C1420      C1425   1.507       .  S
C1421      C1422   1.408       .  A
C1421      H1426   1.084       .  S
C1422      C1423   1.420       .  A
C1423      C1424   1.405       .  A
C1423      C1427   1.508       .  S
C1424      H1428   1.084       .  S
C1425      H1435   1.111       .  S
C1425      H1436   1.110       .  S
C1425      H1437   1.110       .  S
C1427      H1438   1.111       .  S
C1427      H1439   1.110       .  S
C1427      H1440   1.109       .  S
C1441      C1442   1.401       .  A
C1441      C1446   1.403       .  A
C1441      H1451   1.084       .  S
C1442      C1447   1.473       .  S
C1442      C1443   1.411       .  A
C1443      C1444   1.398       .  A
C1443      C1448   1.508       .  S
C1444      C1445   1.400       .  A
C1444      H1449   1.085       .  S
C1445      C1446   1.412       .  A
C1446      C1450   1.505       .  S
C1447      C1452   1.408       .  A
C1447      C1456   1.398       .  A
C1448      H1464   1.110       .  S
C1448      H1465   1.110       .  S
C1448      H1466   1.111       .  S
C1450      H1461   1.110       .  S
C1450      H1462   1.110       .  S
C1450      H1463   1.107       .  S
C1452      C1453   1.400       .  A
C1452      C1457   1.507       .  S
C1453      C1454   1.406       .  A
C1453      H1458   1.083       .  S
C1454      C1455   1.419       .  A
C1455      C1456   1.402       .  A
C1455      C1459   1.508       .  S
C1456      H1460   1.084       .  S
C1457      H1467   1.111       .  S
C1457      H1468   1.110       .  S
C1457      H1469   1.110       .  S
C1459      H1470   1.110       .  S
C1459      H1471   1.107       .  S
C1459      H1472   1.111       .  S
C1473      C1474   1.402       .  A
C1473      C1478   1.403       .  A
C1473      H1483   1.085       .  S
C1474      C1479   1.476       .  S
C1474      C1475   1.409       .  A
C1475      C1476   1.401       .  A
C1475      C1480   1.507       .  S
C1476      C1477   1.403       .  A
C1476      H1481   1.085       .  S
C1477      C1478   1.413       .  A
C1478      C1482   1.507       .  S
C1479      C1484   1.409       .  A
C1479      C1488   1.401       .  A
C1480      H1496   1.110       .  S
C1480      H1497   1.110       .  S
C1480      H1498   1.111       .  S
C1482      H1493   1.111       .  S
C1482      H1494   1.110       .  S
C1482      H1495   1.108       .  S
C1484      C1485   1.402       .  A
C1484      C1489   1.507       .  S
C1485      C1486   1.405       .  A
C1485      H1490   1.084       .  S
C1486      C1487   1.413       .  A
C1487      C1488   1.403       .  A
C1487      C1491   1.507       .  S
C1488      H1492   1.084       .  S
C1489      H1499   1.111       .  S
C1489      H1500   1.110       .  S
C1489      H1501   1.110       .  S
C1491      H1502   1.111       .  S
C1491      H1503   1.109       .  S
C1491      H1504   1.111       .  S
C1505      C1506   1.398       .  A
C1505      C1510   1.394       .  A
C1505      H1515   1.084       .  S
C1506      C1511   1.473   1_565  S
C1506      C1507   1.414       .  A
C1507      C1508   1.401       .  A
C1507      C1512   1.508       .  S
C1508      C1509   1.400       .  A
C1508      H1513   1.084       .  S
C1509      C1510   1.416       .  A
C1510      C1514   1.509       .  S
C1511      C1516   1.408       .  A
C1511      C1520   1.406       .  A
C1512      H1528   1.109       .  S
C1512      H1529   1.110       .  S
C1512      H1530   1.111       .  S
C1514      H1525   1.110       .  S
C1514      H1526   1.111       .  S
C1514      H1527   1.110       .  S
C1516      C1517   1.397       .  A
C1516      C1521   1.508       .  S
C1517      C1518   1.403       .  A
C1517      H1522   1.083       .  S
C1518      C1519   1.406       .  A
C1519      C1520   1.400       .  A
C1519      C1523   1.506       .  S
C1520      H1524   1.085       .  S
C1521      H1531   1.111       .  S
C1521      H1532   1.108   1_545  S
C1521      H1533   1.110   1_545  S
C1523      H1534   1.110       .  S
C1523      H1535   1.110       .  S
C1523      H1536   1.110       .  S
C1537      C1538   1.401       .  A
C1537      C1542   1.409       .  A
C1537      H1547   1.084       .  S
C1538      C1543   1.491       .  S
C1538      C1539   1.409       .  A
C1539      C1540   1.408       .  A
C1539      C1544   1.506       .  S
C1540      C1541   1.411       .  A
C1540      H1545   1.083   1_554  S
C1541      C1542   1.424       .  A
C1542      C1546   1.508       .  S
C1543      C1548   1.411       .  A
C1543      C1552   1.403       .  A
C1544      H1560   1.110       .  S
C1544      H1561   1.110       .  S
C1544      H1562   1.111       .  S
C1546      H1557   1.110       .  S
C1546      H1558   1.111       .  S
C1546      H1559   1.110       .  S
C1548      C1549   1.406       .  A
C1548      C1553   1.507       .  S
C1549      C1550   1.407       .  A
C1549      H1554   1.084       .  S
C1550      C1551   1.420       .  A
C1551      C1552   1.411       .  A
C1551      C1555   1.507       .  S
C1552      H1556   1.084       .  S
C1553      H1563   1.111       .  S
C1553      H1564   1.110       .  S
C1553      H1565   1.110       .  S
C1555      H1566   1.109       .  S
C1555      H1567   1.110       .  S
C1555      H1568   1.111       .  S
C1569      C1570   1.397       .  A
C1569      C1574   1.400       .  A
C1569      H1579   1.085       .  S
C1570      C1575   1.479       .  S
C1570      C1571   1.410       .  A
C1571      C1572   1.407       .  A
C1571      C1576   1.505       .  S
C1572      C1573   1.407       .  A
C1572      H1577   1.084       .  S
C1573      C1574   1.421       .  A
C1574      C1578   1.509       .  S
C1575      C1580   1.409       .  A
C1575      C1584   1.403       .  A
C1576      H1592   1.110       .  S
C1576      H1593   1.110       .  S
C1576      H1594   1.111       .  S
C1578      H1589   1.111       .  S
C1578      H1590   1.109       .  S
C1578      H1591   1.110       .  S
C1580      C1581   1.398       .  A
C1580      C1585   1.508       .  S
C1581      C1582   1.406       .  A
C1581      H1586   1.084       .  S
C1582      C1583   1.416       .  A
C1583      C1584   1.409       .  A
C1583      C1587   1.507       .  S
C1584      H1588   1.084       .  S
C1585      H1595   1.111       .  S
C1585      H1596   1.110       .  S
C1585      H1597   1.110       .  S
C1587      H1598   1.109       .  S
C1587      H1599   1.111       .  S
C1587      H1600   1.111       .  S
C1601      C1602   1.402       .  A
C1601      C1606   1.411       .  A
C1601      H1611   1.084       .  S
C1602      C1607   1.492       .  S
C1602      C1603   1.412       .  A
C1603      C1604   1.406       .  A
C1603      C1608   1.507       .  S
C1604      C1605   1.407       .  A
C1604      H1609   1.084       .  S
C1605      C1606   1.423       .  A
C1606      C1610   1.508       .  S
C1607      C1612   1.407       .  A
C1607      C1616   1.403       .  A
C1608      H1624   1.110       .  S
C1608      H1625   1.110       .  S
C1608      H1626   1.111       .  S
C1610      H1621   1.111       .  S
C1610      H1622   1.109       .  S
C1610      H1623   1.110       .  S
C1612      C1613   1.406       .  A
C1612      C1617   1.507       .  S
C1613      C1614   1.414       .  A
C1613      H1618   1.083       .  S
C1614      C1615   1.424       .  A
C1615      C1616   1.412       .  A
C1615      C1619   1.507       .  S
C1616      H1620   1.084       .  S
C1617      H1627   1.111       .  S
C1617      H1628   1.110       .  S
C1617      H1629   1.110       .  S
C1619      H1630   1.111       .  S
C1619      H1631   1.110       .  S
C1619      H1632   1.107       .  S
C1633      C1634   1.401       .  A
C1633      C1638   1.409       .  A
C1633      H1643   1.084       .  S
C1634      C1639   1.487       .  S
C1634      C1635   1.408       .  A
C1635      C1636   1.406       .  A
C1635      C1640   1.507       .  S
C1636      C1637   1.411       .  A
C1636      H1641   1.083   1_554  S
C1637      C1638   1.424       .  A
C1638      C1642   1.508       .  S
C1639      C1644   1.410       .  A
C1639      C1648   1.404       .  A
C1640      H1656   1.110       .  S
C1640      H1657   1.110       .  S
C1640      H1658   1.111       .  S
C1642      H1653   1.111       .  S
C1642      H1654   1.110       .  S
C1642      H1655   1.109       .  S
C1644      C1645   1.403       .  A
C1644      C1649   1.508       .  S
C1645      C1646   1.408       .  A
C1645      H1650   1.084       .  S
C1646      C1647   1.416       .  A
C1647      C1648   1.410       .  A
C1647      C1651   1.506       .  S
C1648      H1652   1.084       .  S
C1649      H1659   1.111       .  S
C1649      H1660   1.110       .  S
C1649      H1661   1.110       .  S
C1651      H1662   1.109       .  S
C1651      H1663   1.110       .  S
C1651      H1664   1.111       .  S
C1665      C1666   1.407       .  A
C1665      C1670   1.407       .  A
C1665      H1675   1.084   1_556  S
C1666      C1671   1.471       .  S
C1666      C1667   1.405       .  A
C1667      C1668   1.393       .  A
C1667      C1672   1.508       .  S
C1668      C1669   1.403       .  A
C1668      H1673   1.082       .  S
C1669      C1670   1.406       .  A
C1670      C1674   1.504   1_556  S
C1671      C1676   1.410   1_556  A
C1671      C1680   1.399       .  A
C1672      H1688   1.110       .  S
C1672      H1689   1.110       .  S
C1672      H1690   1.111       .  S
C1674      H1685   1.111       .  S
C1674      H1686   1.110   1_554  S
C1674      H1687   1.111       .  S
C1676      C1677   1.400       .  A
C1676      C1681   1.506       .  S
C1677      C1678   1.403   1_554  A
C1677      H1682   1.084       .  S
C1678      C1679   1.416       .  A
C1679      C1680   1.397       .  A
C1679      C1683   1.509       .  S
C1680      H1684   1.085       .  S
C1681      H1691   1.111       .  S
C1681      H1692   1.110       .  S
C1681      H1693   1.110       .  S
C1683      H1694   1.110       .  S
C1683      H1695   1.109       .  S
C1683      H1696   1.111       .  S
C1697      C1698   1.402       .  A
C1697      C1702   1.412       .  A
C1697      H1707   1.084       .  S
C1698      C1703   1.496       .  S
C1698      C1699   1.410       .  A
C1699      C1700   1.409       .  A
C1699      C1704   1.507       .  S
C1700      C1701   1.411       .  A
C1700      H1705   1.082       .  S
C1701      C1702   1.425       .  A
C1702      C1706   1.508       .  S
C1703      C1708   1.412       .  A
C1703      C1712   1.402       .  A
C1704      H1720   1.110       .  S
C1704      H1721   1.110       .  S
C1704      H1722   1.110       .  S
C1706      H1717   1.111       .  S
C1706      H1718   1.111       .  S
C1706      H1719   1.109       .  S
C1708      C1709   1.409       .  A
C1708      C1713   1.507       .  S
C1709      C1710   1.410       .  A
C1709      H1714   1.083       .  S
C1710      C1711   1.423       .  A
C1711      C1712   1.412       .  A
C1711      C1715   1.507       .  S
C1712      H1716   1.084       .  S
C1713      H1723   1.111       .  S
C1713      H1724   1.110       .  S
C1713      H1725   1.110       .  S
C1715      H1726   1.111       .  S
C1715      H1727   1.111       .  S
C1715      H1728   1.109       .  S
C1729      C1730   1.401       .  A
C1729      C1734   1.408       .  A
C1729      H1739   1.084       .  S
C1730      C1735   1.489       .  S
C1730      C1731   1.408       .  A
C1731      C1732   1.407       .  A
C1731      C1736   1.506       .  S
C1732      C1733   1.411       .  A
C1732      H1737   1.084       .  S
C1733      C1734   1.422       .  A
C1734      C1738   1.508       .  S
C1735      C1740   1.407       .  A
C1735      C1744   1.402       .  A
C1736      H1752   1.110       .  S
C1736      H1753   1.109       .  S
C1736      H1754   1.111       .  S
C1738      H1749   1.111       .  S
C1738      H1750   1.110       .  S
C1738      H1751   1.110       .  S
C1740      C1741   1.405       .  A
C1740      C1745   1.507       .  S
C1741      C1742   1.414       .  A
C1741      H1746   1.084       .  S
C1742      C1743   1.422       .  A
C1743      C1744   1.410       .  A
C1743      C1747   1.507       .  S
C1744      H1748   1.084       .  S
C1745      H1755   1.111       .  S
C1745      H1756   1.110       .  S
C1745      H1757   1.109       .  S
C1747      H1758   1.110       .  S
C1747      H1759   1.110       .  S
C1747      H1760   1.111       .  S
C1761      C1762   1.402       .  A
C1761      C1766   1.411       .  A
C1761      H1771   1.084       .  S
C1762      C1767   1.498       .  S
C1762      C1763   1.412       .  A
C1763      C1764   1.412       .  A
C1763      C1768   1.506       .  S
C1764      C1765   1.411       .  A
C1764      H1769   1.084       .  S
C1765      C1766   1.423       .  A
C1766      C1770   1.506       .  S
C1767      C1772   1.412       .  A
C1767      C1776   1.405       .  A
C1768      H1784   1.110       .  S
C1768      H1785   1.109       .  S
C1768      H1786   1.111       .  S
C1770      H1781   1.111       .  S
C1770      H1782   1.109       .  S
C1770      H1783   1.108       .  S
C1772      C1773   1.409       .  A
C1772      C1777   1.507       .  S
C1773      C1774   1.410       .  A
C1773      H1778   1.084       .  S
C1774      C1775   1.420       .  A
C1775      C1776   1.414       .  A
C1775      C1779   1.507       .  S
C1776      H1780   1.084       .  S
C1777      H1787   1.111       .  S
C1777      H1788   1.110       .  S
C1777      H1789   1.109       .  S
C1779      H1790   1.109       .  S
C1779      H1791   1.110       .  S
C1779      H1792   1.111       .  S
C1793      C1794   1.391       .  A
C1793      C1798   1.392       .  A
C1793      H1803   1.085       .  S
C1794      C1799   1.470       .  S
C1794      C1795   1.411       .  A
C1795      C1796   1.407       .  A
C1795      C1800   1.505       .  S
C1796      C1797   1.404       .  A
C1796      H1801   1.084       .  S
C1797      C1798   1.424       .  A
C1798      C1802   1.512       .  S
C1799      C1804   1.412       .  A
C1799      C1808   1.399       .  A
C1800      H1816   1.110       .  S
C1800      H1817   1.110       .  S
C1800      H1818   1.111       .  S
C1802      H1813   1.109       .  S
C1802      H1814   1.111       .  S
C1802      H1815   1.106       .  S
C1804      C1805   1.397       .  A
C1804      C1809   1.508       .  S
C1805      C1806   1.401       .  A
C1805      H1810   1.085       .  S
C1806      C1807   1.416       .  A
C1807      C1808   1.399       .  A
C1807      C1811   1.509       .  S
C1808      H1812   1.085       .  S
C1809      H1819   1.111       .  S
C1809      H1820   1.109       .  S
C1809      H1821   1.110       .  S
C1811      H1822   1.110       .  S
C1811      H1823   1.109       .  S
C1811      H1824   1.111       .  S
C1825      C1826   1.400       .  A
C1825      C1830   1.408       .  A
C1825      H1835   1.084       .  S
C1826      C1831   1.493       .  S
C1826      C1827   1.410       .  A
C1827      C1828   1.409       .  A
C1827      C1832   1.506       .  S
C1828      C1829   1.413       .  A
C1828      H1833   1.083       .  S
C1829      C1830   1.427       .  A
C1830      C1834   1.509       .  S
C1831      C1836   1.410       .  A
C1831      C1840   1.404       .  A
C1832      H1848   1.110       .  S
C1832      H1849   1.110       .  S
C1832      H1850   1.111       .  S
C1834      H1845   1.110       .  S
C1834      H1846   1.111       .  S
C1834      H1847   1.110       .  S
C1836      C1837   1.405       .  A
C1836      C1841   1.507       .  S
C1837      C1838   1.409       .  A
C1837      H1842   1.084       .  S
C1838      C1839   1.420       .  A
C1839      C1840   1.411       .  A
C1839      C1843   1.506       .  S
C1840      H1844   1.084       .  S
C1841      H1851   1.111       .  S
C1841      H1852   1.110       .  S
C1841      H1853   1.110       .  S
C1843      H1854   1.110       .  S
C1843      H1855   1.109       .  S
C1843      H1856   1.111       .  S
C1857      C1858   1.402       .  A
C1857      C1862   1.412       .  A
C1857      H1867   1.084       .  S
C1858      C1863   1.491       .  S
C1858      C1859   1.408       .  A
C1859      C1860   1.405       .  A
C1859      C1864   1.507       .  S
C1860      C1861   1.412       .  A
C1860      H1865   1.083       .  S
C1861      C1862   1.425       .  A
C1862      C1866   1.507       .  S
C1863      C1868   1.411       .  A
C1863      C1872   1.404       .  A
C1864      H1880   1.110       .  S
C1864      H1881   1.109       .  S
C1864      H1882   1.111       .  S
C1866      H1877   1.109       .  S
C1866      H1878   1.111       .  S
C1866      H1879   1.110       .  S
C1868      C1869   1.406       .  A
C1868      C1873   1.507       .  S
C1869      C1870   1.407       .  A
C1869      H1874   1.084       .  S
C1870      C1871   1.417       .  A
C1871      C1872   1.411       .  A
C1871      C1875   1.506       .  S
C1872      H1876   1.084       .  S
C1873      H1883   1.110       .  S
C1873      H1884   1.110       .  S
C1873      H1885   1.109       .  S
C1875      H1886   1.108       .  S
C1875      H1887   1.110       .  S
C1875      H1888   1.111       .  S
C1889      C1890   1.398       .  A
C1889      C1894   1.401       .  A
C1889      H1899   1.085       .  S
C1890      C1895   1.481       .  S
C1890      C1891   1.410       .  A
C1891      C1892   1.407       .  A
C1891      C1896   1.505       .  S
C1892      C1893   1.406       .  A
C1892      H1897   1.084       .  S
C1893      C1894   1.422       .  A
C1894      C1898   1.511       .  S
C1895      C1900   1.409       .  A
C1895      C1904   1.396       .  A
C1896      H1912   1.110       .  S
C1896      H1913   1.110       .  S
C1896      H1914   1.111       .  S
C1898      H1909   1.110       .  S
C1898      H1910   1.111       .  S
C1898      H1911   1.104       .  S
C1900      C1901   1.408       .  A
C1900      C1905   1.505       .  S
C1901      C1902   1.410       .  A
C1901      H1906   1.084       .  S
C1902      C1903   1.425       .  A
C1903      C1904   1.400       .  A
C1903      C1907   1.510       .  S
C1904      H1908   1.085       .  S
C1905      H1915   1.111       .  S
C1905      H1916   1.110       .  S
C1905      H1917   1.110       .  S
C1907      H1918   1.111       .  S
C1907      H1919   1.109       .  S
C1907      H1920   1.111       .  S
C1921      C1922   1.402       .  A
C1921      C1926   1.406       .  A
C1921      H1931   1.084       .  S
C1922      C1927   1.479       .  S
C1922      C1923   1.412       .  A
C1923      C1924   1.400       .  A
C1923      C1928   1.508       .  S
C1924      C1925   1.401       .  A
C1924      H1929   1.085       .  S
C1925      C1926   1.415       .  A
C1926      C1930   1.507       .  S
C1927      C1932   1.406       .  A
C1927      C1936   1.400       .  A
C1928      H1944   1.110       .  S
C1928      H1945   1.111       .  S
C1928      H1946   1.111       .  S
C1930      H1941   1.110       .  S
C1930      H1942   1.111       .  S
C1930      H1943   1.109       .  S
C1932      C1933   1.399       .  A
C1932      C1937   1.508       .  S
C1933      C1934   1.410       .  A
C1933      H1938   1.081       .  S
C1934      C1935   1.422       .  A
C1935      C1936   1.407       .  A
C1935      C1939   1.508       .  S
C1936      H1940   1.084       .  S
C1937      H1947   1.111       .  S
C1937      H1948   1.110       .  S
C1937      H1949   1.110       .  S
C1939      H1950   1.111       .  S
C1939      H1951   1.111       .  S
C1939      H1952   1.109       .  S
C1953      C1954   1.396       .  A
C1953      C1958   1.404       .  A
C1953      H1963   1.084       .  S
C1954      C1959   1.481       .  S
C1954      C1955   1.409       .  A
C1955      C1956   1.404       .  A
C1955      C1960   1.507       .  S
C1956      C1957   1.410       .  A
C1956      H1961   1.083       .  S
C1957      C1958   1.428       .  A
C1958      C1962   1.510       .  S
C1959      C1964   1.410       .  A
C1959      C1968   1.399       .  A
C1960      H1976   1.110       .  S
C1960      H1977   1.110       .  S
C1960      H1978   1.111       .  S
C1962      H1973   1.110       .  S
C1962      H1974   1.111       .  S
C1962      H1975   1.110       .  S
C1964      C1965   1.401       .  A
C1964      C1969   1.507       .  S
C1965      C1966   1.407       .  A
C1965      H1970   1.084       .  S
C1966      C1967   1.423       .  A
C1967      C1968   1.406       .  A
C1967      C1971   1.509       .  S
C1968      H1972   1.084       .  S
C1969      H1979   1.111       .  S
C1969      H1980   1.110       .  S
C1969      H1981   1.110       .  S
C1971      H1982   1.111       .  S
C1971      H1983   1.110       .  S
C1971      H1984   1.109       .  S
C1985      C1986   1.402       .  A
C1985      C1990   1.408       .  A
C1985      H1995   1.084       .  S
C1986      C1991   1.497       .  S
C1986      C1987   1.413       .  A
C1987      C1988   1.409       .  A
C1987      C1992   1.507       .  S
C1988      C1989   1.411       .  A
C1988      H1993   1.083       .  S
C1989      C1990   1.426       .  A
C1990      C1994   1.510       .  S
C1991      C1996   1.412       .  A
C1991      C2000   1.402       .  A
C1992      H2008   1.108       .  S
C1992      H2009   1.110       .  S
C1992      H2010   1.111       .  S
C1994      H2005   1.110       .  S
C1994      H2006   1.111       .  S
C1994      H2007   1.108       .  S
C1996      C1997   1.408       .  A
C1996      C2001   1.508       .  S
C1997      C1998   1.412       .  A
C1997      H2002   1.084       .  S
C1998      C1999   1.426       .  A
C1999      C2000   1.408       .  A
C1999      C2003   1.508       .  S
C2000      H2004   1.085       .  S
C2001      H2011   1.111       .  S
C2001      H2012   1.108       .  S
C2001      H2013   1.110       .  S
C2003      H2014   1.110       .  S
C2003      H2015   1.098       .  S
C2003      H2016   1.110       .  S
C2017      C2018   1.398       .  A
C2017      C2022   1.393       .  A
C2017      H2027   1.083       .  S
C2018      C2023   1.480       .  S
C2018      C2019   1.418       .  A
C2019      C2020   1.405       .  A
C2019      C2024   1.507       .  S
C2020      C2021   1.400       .  A
C2020      H2025   1.084       .  S
C2021      C2022   1.417       .  A
C2022      C2026   1.508       .  S
C2023      C2028   1.413       .  A
C2023      C2032   1.406       .  A
C2024      H2040   1.108       .  S
C2024      H2041   1.110       .  S
C2024      H2042   1.111       .  S
C2026      H2037   1.109       .  S
C2026      H2038   1.111       .  S
C2026      H2039   1.111       .  S
C2028      C2029   1.400       .  A
C2028      C2033   1.509       .  S
C2029      C2030   1.402       .  A
C2029      H2034   1.084       .  S
C2030      C2031   1.407       .  A
C2031      C2032   1.401       .  A
C2031      C2035   1.506       .  S
C2032      H2036   1.084       .  S
C2033      H2043   1.109       .  S
C2033      H2044   1.107       .  S
C2033      H2045   1.110       .  S
C2035      H2046   1.111       .  S
C2035      H2047   1.110       .  S
C2035      H2048   1.110       .  S
C2049      C2050   1.399       .  A
C2049      C2054   1.399       .  A
C2049      H2059   1.084       .  S
C2050      C2055   1.479       .  S
C2050      C2051   1.411       .  A
C2051      C2052   1.405       .  A
C2051      C2056   1.506       .  S
C2052      C2053   1.405       .  A
C2052      H2057   1.084       .  S
C2053      C2054   1.417       .  A
C2054      C2058   1.509       .  S
C2055      C2060   1.409       .  A
C2055      C2064   1.403       .  A
C2056      H2072   1.110       .  S
C2056      H2073   1.110       .  S
C2056      H2074   1.111       .  S
C2058      H2069   1.109       .  S
C2058      H2070   1.111       .  S
C2058      H2071   1.110       .  S
C2060      C2061   1.399       .  A
C2060      C2065   1.508       .  S
C2061      C2062   1.403       .  A
C2061      H2066   1.080       .  S
C2062      C2063   1.416       .  A
C2063      C2064   1.404       .  A
C2063      C2067   1.507       .  S
C2064      H2068   1.084       .  S
C2065      H2075   1.111       .  S
C2065      H2076   1.109       .  S
C2065      H2077   1.110       .  S
C2067      H2078   1.111       .  S
C2067      H2079   1.107       .  S
C2067      H2080   1.110       .  S
C2081      C2082   1.402       .  A
C2081      C2086   1.410       .  A
C2081      H2091   1.084       .  S
C2082      C2087   1.497       .  S
C2082      C2083   1.415       .  A
C2083      C2084   1.412       .  A
C2083      C2088   1.507       .  S
C2084      C2085   1.406       .  A
C2084      H2089   1.084       .  S
C2085      C2086   1.417       .  A
C2086      C2090   1.505       .  S
C2087      C2092   1.411       .  A
C2087      C2096   1.401       .  A
C2088      H2104   1.110       .  S
C2088      H2105   1.109       .  S
C2088      H2106   1.110       .  S
C2090      H2101   1.111       .  S
C2090      H2102   1.109       .  S
C2090      H2103   1.107       .  S
C2092      C2093   1.410       .  A
C2092      C2097   1.506       .  S
C2093      C2094   1.411       .  A
C2093      H2098   1.083       .  S
C2094      C2095   1.426       .  A
C2095      C2096   1.411       .  A
C2095      C2099   1.509       .  S
C2096      H2100   1.084       .  S
C2097      H2107   1.111       .  S
C2097      H2108   1.110       .  S
C2097      H2109   1.110       .  S
C2099      H2110   1.111       .  S
C2099      H2111   1.110       .  S
C2099      H2112   1.109       .  S
C2113      C2114   1.405       .  A
C2113      C2118   1.414       .  A
C2113      H2123   1.084       .  S
C2114      C2119   1.502       .  S
C2114      C2115   1.412       .  A
C2115      C2116   1.409       .  A
C2115      C2120   1.507       .  S
C2116      C2117   1.412       .  A
C2116      H2121   1.083       .  S
C2117      C2118   1.424       .  A
C2118      C2122   1.507       .  S
C2119      C2124   1.414       .  A
C2119      C2128   1.405       .  A
C2120      H2136   1.109       .  S
C2120      H2137   1.110       .  S
C2120      H2138   1.111       .  S
C2122      H2133   1.111       .  S
C2122      H2134   1.111       .  S
C2122      H2135   1.109       .  S
C2124      C2125   1.412       .  A
C2124      C2129   1.506       .  S
C2125      C2126   1.408       .  A
C2125      H2130   1.084       .  S
C2126      C2127   1.419       .  A
C2127      C2128   1.410       .  A
C2127      C2131   1.507   1_545  S
C2128      H2132   1.084       .  S
C2129      H2139   1.111       .  S
C2129      H2140   1.109       .  S
C2129      H2141   1.110       .  S
C2131      H2142   1.111       .  S
C2131      H2143   1.105       .  S
C2131      H2144   1.110   1_565  S
C2145      C2146   1.407       .  A
C2145      C2150   1.403       .  A
C2145      H2155   1.084       .  S
C2146      C2151   1.483   1_545  S
C2146      C2147   1.413       .  A
C2147      C2148   1.400       .  A
C2147      C2152   1.509   1_545  S
C2148      C2149   1.403       .  A
C2148      H2153   1.083       .  S
C2149      C2150   1.408       .  A
C2150      C2154   1.506       .  S
C2151      C2156   1.416       .  A
C2151      C2160   1.400       .  A
C2152      H2168   1.108       .  S
C2152      H2169   1.110       .  S
C2152      H2170   1.111   1_565  S
C2154      H2165   1.111       .  S
C2154      H2166   1.110       .  S
C2154      H2167   1.109       .  S
C2156      C2157   1.404       .  A
C2156      C2161   1.508       .  S
C2157      C2158   1.403       .  A
C2157      H2162   1.084       .  S
C2158      C2159   1.416       .  A
C2159      C2160   1.397       .  A
C2159      C2163   1.508       .  S
C2160      H2164   1.083       .  S
C2161      H2171   1.111       .  S
C2161      H2172   1.108       .  S
C2161      H2173   1.110       .  S
C2163      H2174   1.111       .  S
C2163      H2175   1.109       .  S
C2163      H2176   1.109       .  S
C2177      C2178   1.402       .  A
C2177      C2182   1.404       .  A
C2177      H2187   1.084       .  S
C2178      C2183   1.476       .  S
C2178      C2179   1.409       .  A
C2179      C2180   1.400       .  A
C2179      C2184   1.507       .  S
C2180      C2181   1.404       .  A
C2180      H2185   1.084       .  S
C2181      C2182   1.413       .  A
C2182      C2186   1.507       .  S
C2183      C2188   1.407       .  A
C2183      C2192   1.400       .  A
C2184      H2200   1.110       .  S
C2184      H2201   1.110       .  S
C2184      H2202   1.111       .  S
C2186      H2197   1.111       .  S
C2186      H2198   1.109       .  S
C2186      H2199   1.111       .  S
C2188      C2189   1.401       .  A
C2188      C2193   1.507       .  S
C2189      C2190   1.408       .  A
C2189      H2194   1.084       .  S
C2190      C2191   1.419       .  A
C2191      C2192   1.403       .  A
C2191      C2195   1.508       .  S
C2192      H2196   1.084       .  S
C2193      H2203   1.111       .  S
C2193      H2204   1.110       .  S
C2193      H2205   1.110       .  S
C2195      H2206   1.109       .  S
C2195      H2207   1.111       .  S
C2195      H2208   1.111       .  S
C2209      C2210   1.401       .  A
C2209      C2214   1.410       .  A
C2209      H2219   1.084       .  S
C2210      C2215   1.491       .  S
C2210      C2211   1.413       .  A
C2211      C2212   1.407       .  A
C2211      C2216   1.507       .  S
C2212      C2213   1.406       .  A
C2212      H2217   1.084       .  S
C2213      C2214   1.422       .  A
C2214      C2218   1.508       .  S
C2215      C2220   1.411       .  A
C2215      C2224   1.399       .  A
C2216      H2232   1.110       .  S
C2216      H2233   1.109       .  S
C2216      H2234   1.111       .  S
C2218      H2229   1.108       .  S
C2218      H2230   1.111       .  S
C2218      H2231   1.111       .  S
C2220      C2221   1.408       .  A
C2220      C2225   1.507       .  S
C2221      C2222   1.410       .  A
C2221      H2226   1.083       .  S
C2222      C2223   1.427       .  A
C2223      C2224   1.409       .  A
C2223      C2227   1.509       .  S
C2224      H2228   1.084       .  S
C2225      H2235   1.111       .  S
C2225      H2236   1.110       .  S
C2225      H2237   1.109       .  S
C2227      H2238   1.111       .  S
C2227      H2239   1.110       .  S
C2227      H2240   1.109       .  S
C2241      C2242   1.401       .  A
C2241      C2246   1.408       .  A
C2241      H2251   1.084       .  S
C2242      C2247   1.492       .  S
C2242      C2243   1.410       .  A
C2243      C2244   1.407       .  A
C2243      C2248   1.507       .  S
C2244      C2245   1.412       .  A
C2244      H2249   1.083       .  S
C2245      C2246   1.424       .  A
C2246      C2250   1.509       .  S
C2247      C2252   1.412       .  A
C2247      C2256   1.404       .  A
C2248      H2264   1.109       .  S
C2248      H2265   1.110       .  S
C2248      H2266   1.111       .  S
C2250      H2261   1.110       .  S
C2250      H2262   1.111       .  S
C2250      H2263   1.108       .  S
C2252      C2253   1.407       .  A
C2252      C2257   1.506       .  S
C2253      C2254   1.406       .  A
C2253      H2258   1.084       .  S
C2254      C2255   1.418       .  A
C2255      C2256   1.409       .  A
C2255      C2259   1.506       .  S
C2256      H2260   1.084       .  S
C2257      H2267   1.111       .  S
C2257      H2268   1.109       .  S
C2257      H2269   1.111       .  S
C2259      H2270   1.111       .  S
C2259      H2271   1.108       .  S
C2259      H2272   1.109       .  S
C2273      C2274   1.400       .  A
C2273      C2278   1.395       .  A
C2273      H2283   1.083       .  S
C2274      C2279   1.481       .  S
C2274      C2275   1.416       .  A
C2275      C2276   1.404       .  A
C2275      C2280   1.507       .  S
C2276      C2277   1.402       .  A
C2276      H2281   1.084       .  S
C2277      C2278   1.416       .  A
C2278      C2282   1.509       .  S
C2279      C2284   1.412       .  A
C2279      C2288   1.407       .  A
C2280      H2296   1.108       .  S
C2280      H2297   1.110       .  S
C2280      H2298   1.111       .  S
C2282      H2293   1.110       .  S
C2282      H2294   1.110       .  S
C2282      H2295   1.111       .  S
C2284      C2285   1.399       .  A
C2284      C2289   1.510       .  S
C2285      C2286   1.403       .  A
C2285      H2290   1.082       .  S
C2286      C2287   1.408       .  A
C2287      C2288   1.403       .  A
C2287      C2291   1.505       .  S
C2288      H2292   1.084       .  S
C2289      H2299   1.109       .  S
C2289      H2300   1.107       .  S
C2289      H2301   1.110       .  S
C2291      H2302   1.111       .  S
C2291      H2303   1.109       .  S
C2291      H2304   1.110       .  S
C2305      C2306   1.402       .  A
C2305      C2310   1.405       .  A
C2305      H2315   1.084       .  S
C2306      C2311   1.485       .  S
C2306      C2307   1.410       .  A
C2307      C2308   1.404       .  A
C2307      C2312   1.507       .  S
C2308      C2309   1.408       .  A
C2308      H2313   1.084       .  S
C2309      C2310   1.418       .  A
C2310      C2314   1.508       .  S
C2311      C2316   1.412       .  A
C2311      C2320   1.400       .  A
C2312      H2328   1.110       .  S
C2312      H2329   1.110       .  S
C2312      H2330   1.111       .  S
C2314      H2325   1.109       .  S
C2314      H2326   1.111       .  S
C2314      H2327   1.110       .  S
C2316      C2317   1.405       .  A
C2316      C2321   1.506       .  S
C2317      C2318   1.404       .  A
C2317      H2322   1.084       .  S
C2318      C2319   1.420       .  A
C2319      C2320   1.403       .  A
C2319      C2323   1.510       .  S
C2320      H2324   1.085       .  S
C2321      H2331   1.111       .  S
C2321      H2332   1.109       .  S
C2321      H2333   1.110       .  S
C2323      H2334   1.111       .  S
C2323      H2335   1.105       .  S
C2323      H2336   1.110       .  S
C2337      C2338   1.403       .  A
C2337      C2342   1.404       .  A
C2337      H2347   1.084       .  S
C2338      C2343   1.467       .  S
C2338      C2339   1.406       .  A
C2339      C2340   1.393       .  A
C2339      C2344   1.511       .  S
C2340      C2341   1.409       .  A
C2340      H2345   1.085       .  S
C2341      C2342   1.414       .  A
C2342      C2346   1.507       .  S
C2343      C2348   1.406       .  A
C2343      C2352   1.404       .  A
C2344      H2360   1.110       .  S
C2344      H2361   1.106       .  S
C2344      H2362   1.111       .  S
C2346      H2357   1.111       .  S
C2346      H2358   1.110       .  S
C2346      H2359   1.110       .  S
C2348      C2349   1.396       .  A
C2348      C2353   1.509       .  S
C2349      C2350   1.404       .  A
C2349      H2354   1.082       .  S
C2350      C2351   1.408       .  A
C2351      C2352   1.400       .  A
C2351      C2355   1.506       .  S
C2352      H2356   1.085       .  S
C2353      H2363   1.110       .  S
C2353      H2364   1.110       .  S
C2353      H2365   1.106       .  S
C2355      H2366   1.110       .  S
C2355      H2367   1.110       .  S
C2355      H2368   1.110       .  S
C2369      C2370   1.401       .  A
C2369      C2374   1.409       .  A
C2369      H2379   1.084       .  S
C2370      C2375   1.490       .  S
C2370      C2371   1.410       .  A
C2371      C2372   1.406       .  A
C2371      C2376   1.507       .  S
C2372      C2373   1.410       .  A
C2372      H2377   1.083       .  S
C2373      C2374   1.424       .  A
C2374      C2378   1.508       .  S
C2375      C2380   1.412       .  A
C2375      C2384   1.399       .  A
C2376      H2392   1.110       .  S
C2376      H2393   1.110       .  S
C2376      H2394   1.111       .  S
C2378      H2389   1.109       .  S
C2378      H2390   1.111       .  S
C2378      H2391   1.110       .  S
C2380      C2381   1.410       .  A
C2380      C2385   1.506       .  S
C2381      C2382   1.408       .  A
C2381      H2386   1.084       .  S
C2382      C2383   1.421       .  A
C2383      C2384   1.405       .  A
C2383      C2387   1.508       .  S
C2384      H2388   1.084       .  S
C2385      H2395   1.111       .  S
C2385      H2396   1.110       .  S
C2385      H2397   1.110       .  S
C2387      H2398   1.111       .  S
C2387      H2399   1.111   1_556  S
C2387      H2400   1.109       .  S
C2401      C2402   1.404       .  A
C2401      C2406   1.411       .  A
C2401      H2411   1.084       .  S
C2402      C2407   1.479       .  S
C2402      C2403   1.408       .  A
C2403      C2404   1.396       .  A
C2403      C2408   1.509       .  S
C2404      C2405   1.406       .  A
C2404      H2409   1.083       .  S
C2405      C2406   1.419       .  A
C2406      C2410   1.507       .  S
C2407      C2412   1.408       .  A
C2407      C2416   1.403       .  A
C2408      H2424   1.110       .  S
C2408      H2425   1.110       .  S
C2408      H2426   1.111       .  S
C2410      H2421   1.111       .  S
C2410      H2422   1.111       .  S
C2410      H2423   1.109       .  S
C2412      C2413   1.400       .  A
C2412      C2417   1.508       .  S
C2413      C2414   1.408       .  A
C2413      H2418   1.084       .  S
C2414      C2415   1.416       .  A
C2415      C2416   1.407       .  A
C2415      C2419   1.507       .  S
C2416      H2420   1.084       .  S
C2417      H2427   1.111       .  S
C2417      H2428   1.110       .  S
C2417      H2429   1.110       .  S
C2419      H2430   1.111       .  S
C2419      H2431   1.109       .  S
C2419      H2432   1.111       .  S
C2433      C2434   1.402       .  A
C2433      C2438   1.408       .  A
C2433      H2443   1.084       .  S
C2434      C2439   1.485       .  S
C2434      C2435   1.409       .  A
C2435      C2436   1.404       .  A
C2435      C2440   1.507       .  S
C2436      C2437   1.409       .  A
C2436      H2441   1.084       .  S
C2437      C2438   1.419       .  A
C2438      C2442   1.507       .  S
C2439      C2444   1.408       .  A
C2439      C2448   1.402       .  A
C2440      H2456   1.110       .  S
C2440      H2457   1.110       .  S
C2440      H2458   1.111       .  S
C2442      H2453   1.111       .  S
C2442      H2454   1.109       .  S
C2442      H2455   1.110       .  S
C2444      C2445   1.403       .  A
C2444      C2449   1.507       .  S
C2445      C2446   1.409       .  A
C2445      H2450   1.084       .  S
C2446      C2447   1.419       .  A
C2447      C2448   1.409       .  A
C2447      C2451   1.506       .  S
C2448      H2452   1.084       .  S
C2449      H2459   1.111       .  S
C2449      H2460   1.110       .  S
C2449      H2461   1.110       .  S
C2451      H2462   1.111       .  S
C2451      H2463   1.109       .  S
C2451      H2464   1.109       .  S
C2465      C2466   1.402       .  A
C2465      C2470   1.403       .  A
C2465      H2475   1.084       .  S
C2466      C2471   1.477       .  S
C2466      C2467   1.410       .  A
C2467      C2468   1.400       .  A
C2467      C2472   1.507       .  S
C2468      C2469   1.403       .  A
C2468      H2473   1.085       .  S
C2469      C2470   1.414       .  A
C2470      C2474   1.508       .  S
C2471      C2476   1.410       .  A
C2471      C2480   1.398       .  A
C2472      H2488   1.109       .  S
C2472      H2489   1.110       .  S
C2472      H2490   1.111       .  S
C2474      H2485   1.110       .  S
C2474      H2486   1.111       .  S
C2474      H2487   1.108       .  S
C2476      C2477   1.403       .  A
C2476      C2481   1.506       .  S
C2477      C2478   1.405       .  A
C2477      H2482   1.084       .  S
C2478      C2479   1.419       .  A
C2479      C2480   1.401       .  A
C2479      C2483   1.509       .  S
C2480      H2484   1.084       .  S
C2481      H2491   1.111       .  S
C2481      H2492   1.110       .  S
C2481      H2493   1.110       .  S
C2483      H2494   1.111       .  S
C2483      H2495   1.110       .  S
C2483      H2496   1.110       .  S
C2497      C2498   1.403       .  A
C2497      C2502   1.409       .  A
C2497      H2507   1.084       .  S
C2498      C2503   1.479       .  S
C2498      C2499   1.408       .  A
C2499      C2500   1.397       .  A
C2499      C2504   1.509       .  S
C2500      C2501   1.407       .  A
C2500      H2505   1.084       .  S
C2501      C2502   1.419       .  A
C2502      C2506   1.507       .  S
C2503      C2508   1.409       .  A
C2503      C2512   1.402       .  A
C2504      H2520   1.110       .  S
C2504      H2521   1.110       .  S
C2504      H2522   1.111       .  S
C2506      H2517   1.109       .  S
C2506      H2518   1.111       .  S
C2506      H2519   1.111       .  S
C2508      C2509   1.400       .  A
C2508      C2513   1.508       .  S
C2509      C2510   1.406       .  A
C2509      H2514   1.083       .  S
C2510      C2511   1.418       .  A
C2511      C2512   1.406       .  A
C2511      C2515   1.508       .  S
C2512      H2516   1.084       .  S
C2513      H2523   1.111       .  S
C2513      H2524   1.110       .  S
C2513      H2525   1.110       .  S
C2515      H2526   1.111       .  S
C2515      H2527   1.111       .  S
C2515      H2528   1.109       .  S
C2529      C2530   1.397       .  A
C2529      C2534   1.407       .  A
C2529      H2539   1.084       .  S
C2530      C2535   1.488       .  S
C2530      C2531   1.411       .  A
C2531      C2532   1.408       .  A
C2531      C2536   1.507       .  S
C2532      C2533   1.411       .  A
C2532      H2537   1.083       .  S
C2533      C2534   1.428       .  A
C2534      C2538   1.509       .  S
C2535      C2540   1.411       .  A
C2535      C2544   1.401       .  A
C2536      H2552   1.110       .  S
C2536      H2553   1.109       .  S
C2536      H2554   1.111       .  S
C2538      H2549   1.110       .  S
C2538      H2550   1.111       .  S
C2538      H2551   1.110       .  S
C2540      C2541   1.405       .  A
C2540      C2545   1.508       .  S
C2541      C2542   1.408       .  A
C2541      H2546   1.084       .  S
C2542      C2543   1.422       .  A
C2543      C2544   1.409       .  A
C2543      C2547   1.508       .  S
C2544      H2548   1.084       .  S
C2545      H2555   1.111       .  S
C2545      H2556   1.110       .  S
C2545      H2557   1.109       .  S
C2547      H2558   1.111       .  S
C2547      H2559   1.110       .  S
C2547      H2560   1.109       .  S
C2561      C2562   1.400       .  A
C2561      C2566   1.408       .  A
C2561      H2571   1.084       .  S
C2562      C2567   1.492       .  S
C2562      C2563   1.412       .  A
C2563      C2564   1.410       .  A
C2563      C2568   1.506       .  S
C2564      C2565   1.408       .  A
C2564      H2569   1.084       .  S
C2565      C2566   1.423       .  A
C2566      C2570   1.508       .  S
C2567      C2572   1.411       .  A
C2567      C2576   1.401       .  A
C2568      H2584   1.110       .  S
C2568      H2585   1.110       .  S
C2568      H2586   1.111       .  S
C2570      H2581   1.110       .  S
C2570      H2582   1.111       .  S
C2570      H2583   1.109       .  S
C2572      C2573   1.409       .  A
C2572      C2577   1.506       .  S
C2573      C2574   1.410       .  A
C2573      H2578   1.084       .  S
C2574      C2575   1.423       .  A
C2575      C2576   1.410       .  A
C2575      C2579   1.508       .  S
C2576      H2580   1.084       .  S
C2577      H2587   1.111       .  S
C2577      H2588   1.110       .  S
C2577      H2589   1.110       .  S
C2579      H2590   1.110       .  S
C2579      H2591   1.111       .  S
C2579      H2592   1.111       .  S
C2593      C2594   1.398       .  A
C2593      C2598   1.401       .  A
C2593      H2603   1.084       .  S
C2594      C2599   1.474       .  S
C2594      C2595   1.408       .  A
C2595      C2596   1.401       .  A
C2595      C2600   1.506       .  S
C2596      C2597   1.405       .  A
C2596      H2601   1.084       .  S
C2597      C2598   1.422       .  A
C2598      C2602   1.509       .  S
C2599      C2604   1.409       .  A
C2599      C2608   1.402       .  A
C2600      H2616   1.110       .  S
C2600      H2617   1.110       .  S
C2600      H2618   1.111       .  S
C2602      H2613   1.109       .  S
C2602      H2614   1.111       .  S
C2602      H2615   1.110       .  S
C2604      C2605   1.399       .  A
C2604      C2609   1.507       .  S
C2605      C2606   1.401       .  A
C2605      H2610   1.085       .  S
C2606      C2607   1.412       .  A
C2607      C2608   1.402       .  A
C2607      C2611   1.507       .  S
C2608      H2612   1.084       .  S
C2609      H2619   1.111       .  S
C2609      H2620   1.110       .  S
C2609      H2621   1.110       .  S
C2611      H2622   1.111       .  S
C2611      H2623   1.108       .  S
C2611      H2624   1.110       .  S
C2625      C2626   1.402       .  A
C2625      C2630   1.409       .  A
C2625      H2635   1.084       .  S
C2626      C2631   1.488       .  S
C2626      C2627   1.409       .  A
C2627      C2628   1.406       .  A
C2627      C2632   1.507       .  S
C2628      C2629   1.410       .  A
C2628      H2633   1.084       .  S
C2629      C2630   1.420       .  A
C2630      C2634   1.507       .  S
C2631      C2636   1.409       .  A
C2631      C2640   1.402       .  A
C2632      H2648   1.110       .  S
C2632      H2649   1.110       .  S
C2632      H2650   1.111       .  S
C2634      H2645   1.111       .  S
C2634      H2646   1.110       .  S
C2634      H2647   1.111       .  S
C2636      C2637   1.404       .  A
C2636      C2641   1.507       .  S
C2637      C2638   1.410       .  A
C2637      H2642   1.082       .  S
C2638      C2639   1.422       .  A
C2639      C2640   1.410       .  A
C2639      C2643   1.506       .  S
C2640      H2644   1.084       .  S
C2641      H2651   1.111       .  S
C2641      H2652   1.110       .  S
C2641      H2653   1.109       .  S
C2643      H2654   1.109       .  S
C2643      H2655   1.110       .  S
C2643      H2656   1.111       .  S
C2657      C2658   1.400       .  A
C2657      C2662   1.408       .  A
C2657      H2667   1.084       .  S
C2658      C2663   1.489       .  S
C2658      C2659   1.409       .  A
C2659      C2660   1.406       .  A
C2659      C2664   1.506       .  S
C2660      C2661   1.410       .  A
C2660      H2665   1.083       .  S
C2661      C2662   1.426       .  A
C2662      C2666   1.509       .  S
C2663      C2668   1.413       .  A
C2663      C2672   1.400       .  A
C2664      H2680   1.110       .  S
C2664      H2681   1.110       .  S
C2664      H2682   1.111       .  S
C2666      H2677   1.109       .  S
C2666      H2678   1.111       .  S
C2666      H2679   1.111       .  S
C2668      C2669   1.409       .  A
C2668      C2673   1.506       .  S
C2669      C2670   1.405       .  A
C2669      H2674   1.084       .  S
C2670      C2671   1.420       .  A
C2671      C2672   1.406       .  A
C2671      C2675   1.508       .  S
C2672      H2676   1.084       .  S
C2673      H2683   1.111       .  S
C2673      H2684   1.110       .  S
C2673      H2685   1.111       .  S
C2675      H2686   1.111       .  S
C2675      H2687   1.110       .  S
C2675      H2688   1.109       .  S
C2689      C2690   1.399       .  A
C2689      C2694   1.396       .  A
C2689      H2699   1.085       .  S
C2690      C2695   1.467       .  S
C2690      C2691   1.406       .  A
C2691      C2692   1.400       .  A
C2691      C2696   1.506       .  S
C2692      C2693   1.406       .  A
C2692      H2697   1.085       .  S
C2693      C2694   1.416       .  A
C2694      C2698   1.510       .  S
C2695      C2700   1.404       .  A
C2695      C2704   1.405       .  A
C2696      H2712   1.110       .  S
C2696      H2713   1.110       .  S
C2696      H2714   1.111       .  S
C2698      H2709   1.110       .  S
C2698      H2710   1.111       .  S
C2698      H2711   1.104       .  S
C2700      C2701   1.392       .  A
C2700      C2705   1.508       .  S
C2701      C2702   1.405       .  A
C2701      H2706   1.085       .  S
C2702      C2703   1.411       .  A
C2703      C2704   1.404       .  A
C2703      C2707   1.506       .  S
C2704      H2708   1.084       .  S
C2705      H2715   1.111       .  S
C2705      H2716   1.110       .  S
C2705      H2717   1.110       .  S
C2707      H2718   1.110       .  S
C2707      H2719   1.107       .  S
C2707      H2720   1.110       .  S
C2721      C2722   1.396       .  A
C2721      C2726   1.396       .  A
C2721      H2731   1.085       .  S
C2722      C2727   1.476       .  S
C2722      C2723   1.411       .  A
C2723      C2724   1.406       .  A
C2723      C2728   1.506       .  S
C2724      C2725   1.403       .  A
C2724      H2729   1.084       .  S
C2725      C2726   1.419       .  A
C2726      C2730   1.508       .  S
C2727      C2732   1.410       .  A
C2727      C2736   1.401       .  A
C2728      H2744   1.110       .  S
C2728      H2745   1.110       .  S
C2728      H2746   1.111       .  S
C2730      H2741   1.110       .  S
C2730      H2742   1.111       .  S
C2730      H2743   1.100       .  S
C2732      C2733   1.399       .  A
C2732      C2737   1.508       .  S
C2733      C2734   1.404       .  A
C2733      H2738   1.084       .  S
C2734      C2735   1.416       .  A
C2735      C2736   1.404       .  A
C2735      C2739   1.508       .  S
C2736      H2740   1.084       .  S
C2737      H2747   1.111       .  S
C2737      H2748   1.109       .  S
C2737      H2749   1.110       .  S
C2739      H2750   1.111       .  S
C2739      H2751   1.110       .  S
C2739      H2752   1.109       .  S
C2753      C2754   1.397       .  A
C2753      C2758   1.405       .  A
C2753      H2763   1.084       .  S
C2754      C2759   1.484       .  S
C2754      C2755   1.411       .  A
C2755      C2756   1.407       .  A
C2755      C2760   1.508       .  S
C2756      C2757   1.409       .  A
C2756      H2761   1.083       .  S
C2757      C2758   1.426       .  A
C2758      C2762   1.510       .  S
C2759      C2764   1.411       .  A
C2759      C2768   1.400       .  A
C2760      H2776   1.110       .  S
C2760      H2777   1.109       .  S
C2760      H2778   1.111       .  S
C2762      H2773   1.109       .  S
C2762      H2774   1.111       .  S
C2762      H2775   1.110       .  S
C2764      C2765   1.403       .  A
C2764      C2769   1.508       .  S
C2765      C2766   1.408       .  A
C2765      H2770   1.084       .  S
C2766      C2767   1.421       .  A
C2767      C2768   1.407       .  A
C2767      C2771   1.508       .  S
C2768      H2772   1.084       .  S
C2769      H2779   1.111       .  S
C2769      H2780   1.110       .  S
C2769      H2781   1.108       .  S
C2771      H2782   1.111       .  S
C2771      H2783   1.111       .  S
C2771      H2784   1.109       .  S
C2785      C2786   1.400       .  A
C2785      C2790   1.409       .  A
C2785      H2795   1.084       .  S
C2786      C2791   1.491   1_455  S
C2786      C2787   1.410       .  A
C2787      C2788   1.407       .  A
C2787      C2792   1.507   1_455  S
C2788      C2789   1.411       .  A
C2788      H2793   1.083       .  S
C2789      C2790   1.426       .  A
C2790      C2794   1.509       .  S
C2791      C2796   1.411   1_655  A
C2791      C2800   1.403       .  A
C2792      H2808   1.110       .  S
C2792      H2809   1.110       .  S
C2792      H2810   1.111       .  S
C2794      H2805   1.110       .  S
C2794      H2806   1.111       .  S
C2794      H2807   1.109       .  S
C2796      C2797   1.409   1_455  A
C2796      C2801   1.506       .  S
C2797      C2798   1.408       .  A
C2797      H2802   1.084   1_655  S
C2798      C2799   1.418       .  A
C2799      C2800   1.408       .  A
C2799      C2803   1.508       .  S
C2800      H2804   1.084       .  S
C2801      H2811   1.111       .  S
C2801      H2812   1.110       .  S
C2801      H2813   1.110       .  S
C2803      H2814   1.111       .  S
C2803      H2815   1.111       .  S
C2803      H2816   1.109       .  S
C2817      C2818   1.399       .  A
C2817      C2822   1.394       .  A
C2817      H2827   1.084       .  S
C2818      C2823   1.482       .  S
C2818      C2819   1.417   1_655  A
C2819      C2820   1.405   1_455  A
C2819      C2824   1.508       .  S
C2820      C2821   1.404       .  A
C2820      H2825   1.084   1_655  S
C2821      C2822   1.417       .  A
C2822      C2826   1.509       .  S
C2823      C2828   1.414       .  A
C2823      C2832   1.406       .  A
C2824      H2840   1.108       .  S
C2824      H2841   1.110       .  S
C2824      H2842   1.111       .  S
C2826      H2837   1.109       .  S
C2826      H2838   1.111       .  S
C2826      H2839   1.109       .  S
C2828      C2829   1.398   1_655  A
C2828      C2833   1.511   1_655  S
C2829      C2830   1.401       .  A
C2829      H2834   1.084       .  S
C2830      C2831   1.410   1_455  A
C2831      C2832   1.402       .  A
C2831      C2835   1.506       .  S
C2832      H2836   1.084       .  S
C2833      H2843   1.109       .  S
C2833      H2844   1.106   1_455  S
C2833      H2845   1.110       .  S
C2835      H2846   1.110       .  S
C2835      H2847   1.109       .  S
C2835      H2848   1.111   1_655  S
C2849      C2850   1.399       .  A
C2849      C2854   1.401       .  A
C2849      H2859   1.084       .  S
C2850      C2855   1.478       .  S
C2850      C2851   1.410       .  A
C2851      C2852   1.404       .  A
C2851      C2856   1.506       .  S
C2852      C2853   1.404       .  A
C2852      H2857   1.084       .  S
C2853      C2854   1.417       .  A
C2854      C2858   1.509       .  S
C2855      C2860   1.409       .  A
C2855      C2864   1.402       .  A
C2856      H2872   1.110       .  S
C2856      H2873   1.110       .  S
C2856      H2874   1.111       .  S
C2858      H2869   1.109       .  S
C2858      H2870   1.111       .  S
C2858      H2871   1.110       .  S
C2860      C2861   1.400       .  A
C2860      C2865   1.507       .  S
C2861      C2862   1.404       .  A
C2861      H2866   1.085       .  S
C2862      C2863   1.415       .  A
C2863      C2864   1.404       .  A
C2863      C2867   1.507       .  S
C2864      H2868   1.085       .  S
C2865      H2875   1.111       .  S
C2865      H2876   1.110       .  S
C2865      H2877   1.110       .  S
C2867      H2878   1.110       .  S
C2867      H2879   1.107       .  S
C2867      H2880   1.110       .  S
C2881      C2882   1.400       .  A
C2881      C2886   1.405       .  A
C2881      H2891   1.084       .  S
C2882      C2887   1.481       .  S
C2882      C2883   1.408       .  A
C2883      C2884   1.402       .  A
C2883      C2888   1.508       .  S
C2884      C2885   1.410       .  A
C2884      H2889   1.082       .  S
C2885      C2886   1.423       .  A
C2886      C2890   1.508       .  S
C2887      C2892   1.411       .  A
C2887      C2896   1.404       .  A
C2888      H2904   1.110       .  S
C2888      H2905   1.110       .  S
C2888      H2906   1.111       .  S
C2890      H2901   1.110       .  S
C2890      H2902   1.111       .  S
C2890      H2903   1.111       .  S
C2892      C2893   1.397       .  A
C2892      C2897   1.509       .  S
C2893      C2894   1.404       .  A
C2893      H2898   1.085       .  S
C2894      C2895   1.417       .  A
C2895      C2896   1.409       .  A
C2895      C2899   1.508       .  S
C2896      H2900   1.084       .  S
C2897      H2907   1.111       .  S
C2897      H2908   1.109       .  S
C2897      H2909   1.110       .  S
C2899      H2910   1.111       .  S
C2899      H2911   1.111       .  S
C2899      H2912   1.109       .  S
C2913      C2914   1.398       .  A
C2913      C2918   1.399       .  A
C2913      H2923   1.085       .  S
C2914      C2919   1.469       .  S
C2914      C2915   1.404       .  A
C2915      C2916   1.399       .  A
C2915      C2920   1.507       .  S
C2916      C2917   1.409       .  A
C2916      H2921   1.085       .  S
C2917      C2918   1.421       .  A
C2918      C2922   1.511       .  S
C2919      C2924   1.403       .  A
C2919      C2928   1.406       .  A
C2920      H2936   1.110       .  S
C2920      H2937   1.110       .  S
C2920      H2938   1.111       .  S
C2922      H2933   1.110       .  S
C2922      H2934   1.111       .  S
C2922      H2935   1.101       .  S
C2924      C2925   1.393       .  A
C2924      C2929   1.508       .  S
C2925      C2926   1.406       .  A
C2925      H2930   1.085       .  S
C2926      C2927   1.410       .  A
C2927      C2928   1.405       .  A
C2927      C2931   1.506       .  S
C2928      H2932   1.084       .  S
C2929      H2939   1.111       .  S
C2929      H2940   1.110       .  S
C2929      H2941   1.110       .  S
C2931      H2942   1.110       .  S
C2931      H2943   1.108       .  S
C2931      H2944   1.110       .  S
C2945      C2946   1.403       .  A
C2945      C2950   1.410       .  A
C2945      H2955   1.084       .  S
C2946      C2951   1.493       .  S
C2946      C2947   1.411       .  A
C2947      C2948   1.407       .  A
C2947      C2952   1.507       .  S
C2948      C2949   1.409       .  A
C2948      H2953   1.084       .  S
C2949      C2950   1.421       .  A
C2950      C2954   1.507       .  S
C2951      C2956   1.412       .  A
C2951      C2960   1.400       .  A
C2952      H2968   1.109       .  S
C2952      H2969   1.110       .  S
C2952      H2970   1.111       .  S
C2954      H2965   1.111       .  S
C2954      H2966   1.110       .  S
C2954      H2967   1.109       .  S
C2956      C2957   1.409       .  A
C2956      C2961   1.506       .  S
C2957      C2958   1.410       .  A
C2957      H2962   1.084       .  S
C2958      C2959   1.425       .  A
C2959      C2960   1.407       .  A
C2959      C2963   1.509       .  S
C2960      H2964   1.084       .  S
C2961      H2971   1.111       .  S
C2961      H2972   1.109       .  S
C2961      H2973   1.110       .  S
C2963      H2974   1.110       .  S
C2963      H2975   1.110       .  S
C2963      H2976   1.111       .  S
C2977      C2978   1.403       .  A
C2977      C2982   1.412       .  A
C2977      H2987   1.084       .  S
C2978      C2983   1.491       .  S
C2978      C2979   1.410       .  A
C2979      C2980   1.404       .  A
C2979      C2984   1.507       .  S
C2980      C2981   1.410       .  A
C2980      H2985   1.083       .  S
C2981      C2982   1.423       .  A
C2982      C2986   1.508       .  S
C2983      C2988   1.409       .  A
C2983      C2992   1.403       .  A
C2984      H3000   1.110       .  S
C2984      H3001   1.110       .  S
C2984      H3002   1.111       .  S
C2986      H2997   1.111       .  S
C2986      H2998   1.109       .  S
C2986      H2999   1.110       .  S
C2988      C2989   1.407       .  A
C2988      C2993   1.506       .  S
C2989      C2990   1.410       .  A
C2989      H2994   1.084       .  S
C2990      C2991   1.419       .  A
C2991      C2992   1.410       .  A
C2991      C2995   1.506       .  S
C2992      H2996   1.084       .  S
C2993      H3003   1.111       .  S
C2993      H3004   1.110       .  S
C2993      H3005   1.110       .  S
C2995      H3006   1.109       .  S
C2995      H3007   1.109       .  S
C2995      H3008   1.111       .  S
C3009      C3010   1.396       .  A
C3009      C3014   1.397       .  A
C3009      H3019   1.085       .  S
C3010      C3015   1.472       .  S
C3010      C3011   1.410       .  A
C3011      C3012   1.402       .  A
C3011      C3016   1.506       .  S
C3012      C3013   1.403       .  A
C3012      H3017   1.084       .  S
C3013      C3014   1.419       .  A
C3014      C3018   1.509       .  S
C3015      C3020   1.407       .  A
C3015      C3024   1.400       .  A
C3016      H3032   1.110       .  S
C3016      H3033   1.110       .  S
C3016      H3034   1.111       .  S
C3018      H3029   1.110   1_455  S
C3018      H3030   1.111       .  S
C3018      H3031   1.101       .  S
C3020      C3021   1.399       .  A
C3020      C3025   1.507       .  S
C3021      C3022   1.406       .  A
C3021      H3026   1.083       .  S
C3022      C3023   1.416       .  A
C3023      C3024   1.402       .  A
C3023      C3027   1.508       .  S
C3024      H3028   1.084       .  S
C3025      H3035   1.111   1_455  S
C3025      H3036   1.110   1_455  S
C3025      H3037   1.110       .  S
C3027      H3038   1.111       .  S
C3027      H3039   1.111       .  S
C3027      H3040   1.109       .  S
C3041      C3042   1.396       .  A
C3041      C3046   1.396       .  A
C3041      H3051   1.085       .  S
C3042      C3047   1.474       .  S
C3042      C3043   1.409       .  A
C3043      C3044   1.406       .  A
C3043      C3048   1.504       .  S
C3044      C3045   1.405       .  A
C3044      H3049   1.084       .  S
C3045      C3046   1.422       .  A
C3046      C3050   1.511       .  S
C3047      C3052   1.408       .  A
C3047      C3056   1.397       .  A
C3048      H3064   1.110       .  S
C3048      H3065   1.110       .  S
C3048      H3066   1.111       .  S
C3050      H3061   1.108       .  S
C3050      H3062   1.111       .  S
C3050      H3063   1.110       .  S
C3052      C3053   1.402       .  A
C3052      C3057   1.506       .  S
C3053      C3054   1.407       .  A
C3053      H3058   1.084       .  S
C3054      C3055   1.421       .  A
C3055      C3056   1.401       .  A
C3055      C3059   1.507       .  S
C3056      H3060   1.085       .  S
C3057      H3067   1.111       .  S
C3057      H3068   1.110       .  S
C3057      H3069   1.110       .  S
C3059      H3070   1.110       .  S
C3059      H3071   1.110       .  S
C3059      H3072   1.111       .  S
C3073      C3074   1.402       .  A
C3073      C3078   1.410       .  A
C3073      H3083   1.084       .  S
C3074      C3079   1.490       .  S
C3074      C3075   1.408       .  A
C3075      C3076   1.407       .  A
C3075      C3080   1.506       .  S
C3076      C3077   1.413       .  A
C3076      H3081   1.083       .  S
C3077      C3078   1.424       .  A
C3078      C3082   1.507       .  S
C3079      C3084   1.408       .  A
C3079      C3088   1.402       .  A
C3080      H3096   1.110       .  S
C3080      H3097   1.110       .  S
C3080      H3098   1.111       .  S
C3082      H3093   1.111       .  S
C3082      H3094   1.110       .  S
C3082      H3095   1.110       .  S
C3084      C3085   1.406       .  A
C3084      C3089   1.506       .  S
C3085      C3086   1.413       .  A
C3085      H3090   1.084       .  S
C3086      C3087   1.422       .  A
C3087      C3088   1.410       .  A
C3087      C3091   1.507       .  S
C3088      H3092   1.084       .  S
C3089      H3099   1.111       .  S
C3089      H3100   1.110       .  S
C3089      H3101   1.109       .  S
C3091      H3102   1.110       .  S
C3091      H3103   1.110       .  S
C3091      H3104   1.111       .  S
C3105      C3106   1.401   1_455  A
C3105      C3110   1.411       .  A
C3105      H3115   1.084       .  S
C3106      C3111   1.493       .  S
C3106      C3107   1.409       .  A
C3107      C3108   1.408       .  A
C3107      C3112   1.506       .  S
C3108      C3109   1.412   1_655  A
C3108      H3113   1.083       .  S
C3109      C3110   1.426       .  A
C3110      C3114   1.508       .  S
C3111      C3116   1.412       .  A
C3111      C3120   1.405       .  A
C3112      H3128   1.110       .  S
C3112      H3129   1.110       .  S
C3112      H3130   1.111       .  S
C3114      H3125   1.109       .  S
C3114      H3126   1.111       .  S
C3114      H3127   1.110       .  S
C3116      C3117   1.406       .  A
C3116      C3121   1.507       .  S
C3117      C3118   1.406       .  A
C3117      H3122   1.085       .  S
C3118      C3119   1.416       .  A
C3119      C3120   1.410       .  A
C3119      C3123   1.506       .  S
C3120      H3124   1.084       .  S
C3121      H3131   1.111       .  S
C3121      H3132   1.110   1_655  S
C3121      H3133   1.110       .  S
C3123      H3134   1.110       .  S
C3123      H3135   1.108       .  S
C3123      H3136   1.111       .  S
C3137      C3138   1.396       .  A
C3137      C3142   1.400       .  A
C3137      H3147   1.084       .  S
C3138      C3143   1.475       .  S
C3138      C3139   1.408       .  A
C3139      C3140   1.403       .  A
C3139      C3144   1.506       .  S
C3140      C3141   1.408       .  A
C3140      H3145   1.084       .  S
C3141      C3142   1.425       .  A
C3142      C3146   1.510       .  S
C3143      C3148   1.407       .  A
C3143      C3152   1.402       .  A
C3144      H3160   1.110       .  S
C3144      H3161   1.110       .  S
C3144      H3162   1.111       .  S
C3146      H3157   1.110       .  S
C3146      H3158   1.111       .  S
C3146      H3159   1.110       .  S
C3148      C3149   1.398       .  A
C3148      C3153   1.507       .  S
C3149      C3150   1.407       .  A
C3149      H3154   1.084       .  S
C3150      C3151   1.416       .  A
C3151      C3152   1.405       .  A
C3151      C3155   1.507       .  S
C3152      H3156   1.084       .  S
C3153      H3163   1.111       .  S
C3153      H3164   1.110       .  S
C3153      H3165   1.110       .  S
C3155      H3166   1.111       .  S
C3155      H3167   1.109       .  S
C3155      H3168   1.111       .  S
C3169      C3170   1.402       .  A
C3169      C3174   1.409       .  A
C3169      H3179   1.084       .  S
C3170      C3175   1.485       .  S
C3170      C3171   1.410       .  A
C3171      C3172   1.404       .  A
C3171      C3176   1.508       .  S
C3172      C3173   1.408       .  A
C3172      H3177   1.084       .  S
C3173      C3174   1.419       .  A
C3174      C3178   1.507       .  S
C3175      C3180   1.408       .  A
C3175      C3184   1.399   1_655  A
C3176      H3192   1.110   1_655  S
C3176      H3193   1.109       .  S
C3176      H3194   1.111       .  S
C3178      H3189   1.111       .  S
C3178      H3190   1.109       .  S
C3178      H3191   1.110       .  S
C3180      C3181   1.405   1_655  A
C3180      C3185   1.507       .  S
C3181      C3182   1.412       .  A
C3181      H3186   1.083   1_465  S
C3182      C3183   1.425       .  A
C3183      C3184   1.407       .  A
C3183      C3187   1.508       .  S
C3184      H3188   1.084       .  S
C3185      H3195   1.111       .  S
C3185      H3196   1.110       .  S
C3185      H3197   1.109       .  S
C3187      H3198   1.111       .  S
C3187      H3199   1.110       .  S
C3187      H3200   1.108       .  S
C3201      C3202   1.406   1_655  A
C3201      C3206   1.405       .  A
C3201      H3211   1.084   1_556  S
C3202      C3207   1.471   1_545  S
C3202      C3203   1.404       .  A
C3203      C3204   1.393       .  A
C3203      C3208   1.507   1_545  S
C3204      C3205   1.407       .  A
C3204      H3209   1.085       .  S
C3205      C3206   1.409   1_455  A
C3206      C3210   1.505   1_556  S
C3207      C3212   1.410   1_556  A
C3207      C3216   1.398   1_455  A
C3208      H3224   1.110       .  S
C3208      H3225   1.110       .  S
C3208      H3226   1.111       .  S
C3210      H3221   1.110       .  S
C3210      H3222   1.110   1_554  S
C3210      H3223   1.108   1_554  S
C3212      C3213   1.400   1_455  A
C3212      C3217   1.507       .  S
C3213      C3214   1.403       .  A
C3213      H3218   1.085   1_655  S
C3214      C3215   1.416   1_554  A
C3215      C3216   1.398       .  A
C3215      C3219   1.507       .  S
C3216      H3220   1.085       .  S
C3217      H3227   1.111       .  S
C3217      H3228   1.110       .  S
C3217      H3229   1.110       .  S
C3219      H3230   1.109       .  S
C3219      H3231   1.109       .  S
C3219      H3232   1.110       .  S
C3233      C3234   1.402       .  A
C3233      C3238   1.409       .  A
C3233      H3243   1.084   1_455  S
C3234      C3239   1.487   1_455  S
C3234      C3235   1.410       .  A
C3235      C3236   1.404       .  A
C3235      C3240   1.507       .  S
C3236      C3237   1.407       .  A
C3236      H3241   1.084       .  S
C3237      C3238   1.420       .  A
C3238      C3242   1.508       .  S
C3239      C3244   1.411       .  A
C3239      C3248   1.400   1_655  A
C3240      H3256   1.110       .  S
C3240      H3257   1.110   1_455  S
C3240      H3258   1.111       .  S
C3242      H3253   1.109       .  S
C3242      H3254   1.111       .  S
C3242      H3255   1.111       .  S
C3244      C3245   1.407       .  A
C3244      C3249   1.506       .  S
C3245      C3246   1.407       .  A
C3245      H3250   1.084       .  S
C3246      C3247   1.421       .  A
C3247      C3248   1.407   1_655  A
C3247      C3251   1.508   1_656  S
C3248      H3252   1.084       .  S
C3249      H3259   1.111       .  S
C3249      H3260   1.110       .  S
C3249      H3261   1.110       .  S
C3251      H3262   1.111       .  S
C3251      H3263   1.111       .  S
C3251      H3264   1.109       .  S
C3265      C3266   1.399       .  A
C3265      C3270   1.404       .  A
C3265      H3275   1.084       .  S
C3266      C3271   1.473       .  S
C3266      C3267   1.406       .  A
C3267      C3268   1.398       .  A
C3267      C3272   1.508       .  S
C3268      C3269   1.408       .  A
C3268      H3273   1.084       .  S
C3269      C3270   1.421       .  A
C3270      C3274   1.507       .  S
C3271      C3276   1.410       .  A
C3271      C3280   1.394       .  A
C3272      H3288   1.110       .  S
C3272      H3289   1.110       .  S
C3272      H3290   1.111       .  S
C3274      H3285   1.109       .  S
C3274      H3286   1.111       .  S
C3274      H3287   1.110   1_545  S
C3276      C3277   1.405       .  A
C3276      C3281   1.505       .  S
C3277      C3278   1.404       .  A
C3277      H3282   1.084       .  S
C3278      C3279   1.423       .  A
C3279      C3280   1.397       .  A
C3279      C3283   1.511       .  S
C3280      H3284   1.085       .  S
C3281      H3291   1.111       .  S
C3281      H3292   1.110       .  S
C3281      H3293   1.110       .  S
C3283      H3294   1.110       .  S
C3283      H3295   1.109       .  S
C3283      H3296   1.111       .  S
C3297      C3298   1.400       .  A
C3297      C3302   1.408       .  A
C3297      H3307   1.084       .  S
C3298      C3303   1.491       .  S
C3298      C3299   1.412       .  A
C3299      C3300   1.409       .  A
C3299      C3304   1.506       .  S
C3300      C3301   1.407       .  A
C3300      H3305   1.083       .  S
C3301      C3302   1.423       .  A
C3302      C3306   1.508   1_546  S
C3303      C3308   1.410       .  A
C3303      C3312   1.401       .  A
C3304      H3320   1.110       .  S
C3304      H3321   1.110       .  S
C3304      H3322   1.111       .  S
C3306      H3317   1.109       .  S
C3306      H3318   1.111   1_565  S
C3306      H3319   1.111   1_565  S
C3308      C3309   1.407       .  A
C3308      C3313   1.506       .  S
C3309      C3310   1.410       .  A
C3309      H3314   1.084       .  S
C3310      C3311   1.424       .  A
C3311      C3312   1.410       .  A
C3311      C3315   1.508       .  S
C3312      H3316   1.084       .  S
C3313      H3323   1.111       .  S
C3313      H3324   1.110       .  S
C3313      H3325   1.110       .  S
C3315      H3326   1.110       .  S
C3315      H3327   1.109       .  S
C3315      H3328   1.111       .  S
C3329      C3330   1.400       .  A
C3329      C3334   1.408       .  A
C3329      H3339   1.084       .  S
C3330      C3335   1.485       .  S
C3330      C3331   1.406       .  A
C3331      C3332   1.405       .  A
C3331      C3336   1.506       .  S
C3332      C3333   1.413       .  A
C3332      H3337   1.083       .  S
C3333      C3334   1.424       .  A
C3334      C3338   1.508       .  S
C3335      C3340   1.410       .  A
C3335      C3344   1.401       .  A
C3336      H3352   1.110       .  S
C3336      H3353   1.110       .  S
C3336      H3354   1.111       .  S
C3338      H3349   1.111       .  S
C3338      H3350   1.110       .  S
C3338      H3351   1.110       .  S
C3340      C3341   1.403       .  A
C3340      C3345   1.507       .  S
C3341      C3342   1.407       .  A
C3341      H3346   1.084       .  S
C3342      C3343   1.421       .  A
C3343      C3344   1.408       .  A
C3343      C3347   1.508       .  S
C3344      H3348   1.084       .  S
C3345      H3355   1.111   1_554  S
C3345      H3356   1.110       .  S
C3345      H3357   1.110       .  S
C3347      H3358   1.111       .  S
C3347      H3359   1.109       .  S
C3347      H3360   1.110       .  S
C3361      C3362   1.397       .  A
C3361      C3366   1.406       .  A
C3361      H3371   1.084       .  S
C3362      C3367   1.486       .  S
C3362      C3363   1.408       .  A
C3363      C3364   1.408       .  A
C3363      C3368   1.506       .  S
C3364      C3365   1.412       .  A
C3364      H3369   1.083       .  S
C3365      C3366   1.428       .  A
C3366      C3370   1.509       .  S
C3367      C3372   1.411       .  A
C3367      C3376   1.403       .  A
C3368      H3384   1.110       .  S
C3368      H3385   1.110       .  S
C3368      H3386   1.111       .  S
C3370      H3381   1.111       .  S
C3370      H3382   1.110       .  S
C3370      H3383   1.110       .  S
C3372      C3373   1.404       .  A
C3372      C3377   1.507       .  S
C3373      C3374   1.408       .  A
C3373      H3378   1.084       .  S
C3374      C3375   1.416       .  A
C3375      C3376   1.408       .  A
C3375      C3379   1.506       .  S
C3376      H3380   1.084       .  S
C3377      H3387   1.111       .  S
C3377      H3388   1.110       .  S
C3377      H3389   1.109       .  S
C3379      H3390   1.111       .  S
C3379      H3391   1.109       .  S
C3379      H3392   1.110       .  S
C3393      C3394   1.400       .  A
C3393      C3398   1.400       .  A
C3393      H3403   1.085       .  S
C3394      C3399   1.471       .  S
C3394      C3395   1.410   1_556  A
C3395      C3396   1.399       .  A
C3395      C3400   1.507       .  S
C3396      C3397   1.403       .  A
C3396      H3401   1.084       .  S
C3397      C3398   1.417   1_554  A
C3398      C3402   1.509       .  S
C3399      C3404   1.405       .  A
C3399      C3408   1.405       .  A
C3400      H3416   1.110       .  S
C3400      H3417   1.110       .  S
C3400      H3418   1.111       .  S
C3402      H3413   1.111       .  S
C3402      H3414   1.110       .  S
C3402      H3415   1.109       .  S
C3404      C3405   1.394       .  A
C3404      C3409   1.508       .  S
C3405      C3406   1.405       .  A
C3405      H3410   1.085       .  S
C3406      C3407   1.411       .  A
C3407      C3408   1.405       .  A
C3407      C3411   1.505   1_556  S
C3408      H3412   1.084   1_556  S
C3409      H3419   1.111       .  S
C3409      H3420   1.110       .  S
C3409      H3421   1.110       .  S
C3411      H3422   1.110   1_554  S
C3411      H3423   1.108       .  S
C3411      H3424   1.110       .  S
C3425      C3426   1.400       .  A
C3425      C3430   1.402       .  A
C3425      H3435   1.084       .  S
C3426      C3431   1.482       .  S
C3426      C3427   1.414       .  A
C3427      C3428   1.403       .  A
C3427      C3432   1.507       .  S
C3428      C3429   1.402       .  A
C3428      H3433   1.084       .  S
C3429      C3430   1.417       .  A
C3430      C3434   1.509       .  S
C3431      C3436   1.411       .  A
C3431      C3440   1.402       .  A
C3432      H3448   1.109       .  S
C3432      H3449   1.110       .  S
C3432      H3450   1.111       .  S
C3434      H3445   1.111       .  S
C3434      H3446   1.111       .  S
C3434      H3447   1.110       .  S
C3436      C3437   1.402       .  A
C3436      C3441   1.508       .  S
C3437      C3438   1.406       .  A
C3437      H3442   1.084       .  S
C3438      C3439   1.416       .  A
C3439      C3440   1.404       .  A
C3439      C3443   1.508       .  S
C3440      H3444   1.084       .  S
C3441      H3451   1.111       .  S
C3441      H3452   1.109       .  S
C3441      H3453   1.110       .  S
C3443      H3454   1.109       .  S
C3443      H3455   1.111       .  S
C3443      H3456   1.111       .  S
C3457      C3458   1.402       .  A
C3457      C3462   1.409   1_545  A
C3457      H3467   1.084       .  S
C3458      C3463   1.490   1_655  S
C3458      C3459   1.409   1_655  A
C3459      C3460   1.407   1_455  A
C3459      C3464   1.506       .  S
C3460      C3461   1.410   1_545  A
C3460      H3465   1.084       .  S
C3461      C3462   1.422       .  A
C3462      C3466   1.508       .  S
C3463      C3468   1.409       .  A
C3463      C3472   1.401       .  A
C3464      H3480   1.110       .  S
C3464      H3481   1.110       .  S
C3464      H3482   1.111       .  S
C3466      H3477   1.111       .  S
C3466      H3478   1.111       .  S
C3466      H3479   1.109       .  S
C3468      C3469   1.406       .  A
C3468      C3473   1.507   1_455  S
C3469      C3470   1.412       .  A
C3469      H3474   1.083       .  S
C3470      C3471   1.424       .  A
C3471      C3472   1.411       .  A
C3471      C3475   1.507       .  S
C3472      H3476   1.084       .  S
C3473      H3483   1.111       .  S
C3473      H3484   1.110       .  S
C3473      H3485   1.110       .  S
C3475      H3486   1.111       .  S
C3475      H3487   1.109       .  S
C3475      H3488   1.111       .  S
C3489      C3490   1.401       .  A
C3489      C3494   1.401       .  A
C3489      H3499   1.084       .  S
C3490      C3495   1.473       .  S
C3490      C3491   1.408       .  A
C3491      C3492   1.400       .  A
C3491      C3496   1.507       .  S
C3492      C3493   1.404       .  A
C3492      H3497   1.084       .  S
C3493      C3494   1.416       .  A
C3494      C3498   1.509       .  S
C3495      C3500   1.406       .  A
C3495      C3504   1.400       .  A
C3496      H3512   1.109       .  S
C3496      H3513   1.110       .  S
C3496      H3514   1.111       .  S
C3498      H3509   1.111       .  S
C3498      H3510   1.111       .  S
C3498      H3511   1.110       .  S
C3500      C3501   1.399       .  A
C3500      C3505   1.507       .  S
C3501      C3502   1.410       .  A
C3501      H3506   1.084       .  S
C3502      C3503   1.420       .  A
C3503      C3504   1.402       .  A
C3503      C3507   1.508       .  S
C3504      H3508   1.084       .  S
C3505      H3515   1.111       .  S
C3505      H3516   1.110       .  S
C3505      H3517   1.110       .  S
C3507      H3518   1.111       .  S
C3507      H3519   1.108       .  S
C3507      H3520   1.110       .  S
C3521      C3522   1.400       .  A
C3521      C3526   1.409       .  A
C3521      H3531   1.084       .  S
C3522      C3527   1.492       .  S
C3522      C3523   1.410       .  A
C3523      C3524   1.408       .  A
C3523      C3528   1.506       .  S
C3524      C3525   1.408       .  A
C3524      H3529   1.084       .  S
C3525      C3526   1.424       .  A
C3526      C3530   1.508       .  S
C3527      C3532   1.413   1_655  A
C3527      C3536   1.402       .  A
C3528      H3544   1.110       .  S
C3528      H3545   1.110   1_655  S
C3528      H3546   1.111       .  S
C3530      H3541   1.110       .  S
C3530      H3542   1.111       .  S
C3530      H3543   1.110       .  S
C3532      C3533   1.406       .  A
C3532      C3537   1.505       .  S
C3533      C3534   1.403       .  A
C3533      H3538   1.080       .  S
C3534      C3535   1.420   1_455  A
C3535      C3536   1.409       .  A
C3535      C3539   1.508       .  S
C3536      H3540   1.084       .  S
C3537      H3547   1.111       .  S
C3537      H3548   1.110       .  S
C3537      H3549   1.110       .  S
C3539      H3550   1.110       .  S
C3539      H3551   1.107       .  S
C3539      H3552   1.111       .  S
C3553      C3554   1.398       .  A
C3553      C3558   1.391       .  A
C3553      H3563   1.085       .  S
C3554      C3559   1.476       .  S
C3554      C3555   1.417   1_455  A
C3555      C3556   1.407       .  A
C3555      C3560   1.509       .  S
C3556      C3557   1.403   1_655  A
C3556      H3561   1.084       .  S
C3557      C3558   1.417       .  A
C3558      C3562   1.508       .  S
C3559      C3564   1.416       .  A
C3559      C3568   1.398   1_455  A
C3560      H3576   1.110       .  S
C3560      H3577   1.105       .  S
C3560      H3578   1.111       .  S
C3562      H3573   1.111       .  S
C3562      H3574   1.110       .  S
C3562      H3575   1.107       .  S
C3564      C3565   1.406   1_455  A
C3564      C3569   1.509       .  S
C3565      C3566   1.401       .  A
C3565      H3570   1.084       .  S
C3566      C3567   1.410       .  A
C3567      C3568   1.392       .  A
C3567      C3571   1.504       .  S
C3568      H3572   1.085       .  S
C3569      H3579   1.111       .  S
C3569      H3580   1.110       .  S
C3569      H3581   1.105   1_455  S
C3571      H3582   1.109   1_655  S
C3571      H3583   1.108       .  S
C3571      H3584   1.109       .  S
C3585      C3586   1.396       .  A
C3585      C3590   1.400       .  A
C3585      H3595   1.084       .  S
C3586      C3591   1.475       .  S
C3586      C3587   1.408       .  A
C3587      C3588   1.403       .  A
C3587      C3592   1.506       .  S
C3588      C3589   1.408       .  A
C3588      H3593   1.084       .  S
C3589      C3590   1.424       .  A
C3590      C3594   1.510       .  S
C3591      C3596   1.407       .  A
C3591      C3600   1.403       .  A
C3592      H3608   1.110       .  S
C3592      H3609   1.110       .  S
C3592      H3610   1.111       .  S
C3594      H3605   1.110       .  S
C3594      H3606   1.111       .  S
C3594      H3607   1.110       .  S
C3596      C3597   1.397       .  A
C3596      C3601   1.508       .  S
C3597      C3598   1.406       .  A
C3597      H3602   1.084       .  S
C3598      C3599   1.414       .  A
C3599      C3600   1.406       .  A
C3599      C3603   1.506       .  S
C3600      H3604   1.084       .  S
C3601      H3611   1.111       .  S
C3601      H3612   1.110       .  S
C3601      H3613   1.110       .  S
C3603      H3614   1.111       .  S
C3603      H3615   1.111       .  S
C3603      H3616   1.109       .  S
C3617      C3618   1.404       .  A
C3617      C3622   1.412       .  A
C3617      H3627   1.084       .  S
C3618      C3623   1.491       .  S
C3618      C3619   1.410       .  A
C3619      C3620   1.404       .  A
C3619      C3624   1.507       .  S
C3620      C3621   1.409       .  A
C3620      H3625   1.084       .  S
C3621      C3622   1.421       .  A
C3622      C3626   1.507       .  S
C3623      C3628   1.409       .  A
C3623      C3632   1.402       .  A
C3624      H3640   1.110       .  S
C3624      H3641   1.110       .  S
C3624      H3642   1.111       .  S
C3626      H3637   1.111       .  S
C3626      H3638   1.109       .  S
C3626      H3639   1.111       .  S
C3628      C3629   1.408       .  A
C3628      C3633   1.506       .  S
C3629      C3630   1.411       .  A
C3629      H3634   1.084       .  S
C3630      C3631   1.421       .  A
C3631      C3632   1.408       .  A
C3631      C3635   1.507       .  S
C3632      H3636   1.084       .  S
C3633      H3643   1.111       .  S
C3633      H3644   1.110       .  S
C3633      H3645   1.110       .  S
C3635      H3646   1.109       .  S
C3635      H3647   1.109       .  S
C3635      H3648   1.111       .  S
C3649      C3650   1.406       .  A
C3649      C3654   1.405       .  A
C3649      H3659   1.084       .  S
C3650      C3655   1.467   1_565  S
C3650      C3651   1.404       .  A
C3651      C3652   1.392       .  A
C3651      C3656   1.508       .  S
C3652      C3653   1.404       .  A
C3652      H3657   1.085       .  S
C3653      C3654   1.406       .  A
C3654      C3658   1.505       .  S
C3655      C3660   1.406       .  A
C3655      C3664   1.401       .  A
C3656      H3672   1.110   1_565  S
C3656      H3673   1.110   1_565  S
C3656      H3674   1.111       .  S
C3658      H3669   1.110       .  S
C3658      H3670   1.111       .  S
C3658      H3671   1.111       .  S
C3660      C3661   1.397       .  A
C3660      C3665   1.507       .  S
C3661      C3662   1.406       .  A
C3661      H3666   1.085       .  S
C3662      C3663   1.414       .  A
C3663      C3664   1.400       .  A
C3663      C3667   1.508       .  S
C3664      H3668   1.084       .  S
C3665      H3675   1.111       .  S
C3665      H3676   1.110   1_545  S
C3665      H3677   1.110       .  S
C3667      H3678   1.109       .  S
C3667      H3679   1.110       .  S
C3667      H3680   1.111       .  S
C3681      C3682   1.400       .  A
C3681      C3686   1.404       .  A
C3681      H3691   1.084       .  S
C3682      C3687   1.473       .  S
C3682      C3683   1.409       .  A
C3683      C3684   1.398       .  A
C3683      C3688   1.509       .  S
C3684      C3685   1.404       .  A
C3684      H3689   1.085       .  S
C3685      C3686   1.415       .  A
C3686      C3690   1.507       .  S
C3687      C3692   1.407       .  A
C3687      C3696   1.397       .  A
C3688      H3704   1.110       .  S
C3688      H3705   1.110       .  S
C3688      H3706   1.111       .  S
C3690      H3701   1.111       .  S
C3690      H3702   1.109       .  S
C3690      H3703   1.110       .  S
C3692      C3693   1.402       .  A
C3692      C3697   1.506       .  S
C3693      C3694   1.408       .  A
C3693      H3698   1.084       .  S
C3694      C3695   1.422       .  A
C3695      C3696   1.399       .  A
C3695      C3699   1.510       .  S
C3696      H3700   1.085       .  S
C3697      H3707   1.111       .  S
C3697      H3708   1.110       .  S
C3697      H3709   1.110       .  S
C3699      H3710   1.111       .  S
C3699      H3711   1.110       .  S
C3699      H3712   1.111       .  S
C3713      C3714   1.399       .  A
C3713      C3718   1.404       .  A
C3713      H3723   1.084       .  S
C3714      C3719   1.486       .  S
C3714      C3715   1.413       .  A
C3715      C3716   1.405       .  A
C3715      C3720   1.507       .  S
C3716      C3717   1.405       .  A
C3716      H3721   1.084       .  S
C3717      C3718   1.421       .  A
C3718      C3722   1.509       .  S
C3719      C3724   1.410       .  A
C3719      C3728   1.405       .  A
C3720      H3736   1.109       .  S
C3720      H3737   1.110       .  S
C3720      H3738   1.111       .  S
C3722      H3733   1.111       .  S
C3722      H3734   1.108       .  S
C3722      H3735   1.110       .  S
C3724      C3725   1.401       .  A
C3724      C3729   1.507       .  S
C3725      C3726   1.407       .  A
C3725      H3730   1.084       .  S
C3726      C3727   1.417       .  A
C3727      C3728   1.408       .  A
C3727      C3731   1.507       .  S
C3728      H3732   1.084       .  S
C3729      H3739   1.111       .  S
C3729      H3740   1.109       .  S
C3729      H3741   1.110       .  S
C3731      H3742   1.110       .  S
C3731      H3743   1.111       .  S
C3731      H3744   1.111       .  S
C3745      C3746   1.401       .  A
C3745      C3750   1.410       .  A
C3745      H3755   1.084       .  S
C3746      C3751   1.496       .  S
C3746      C3747   1.411       .  A
C3747      C3748   1.409       .  A
C3747      C3752   1.507       .  S
C3748      C3749   1.411       .  A
C3748      H3753   1.083       .  S
C3749      C3750   1.427       .  A
C3750      C3754   1.509       .  S
C3751      C3756   1.412       .  A
C3751      C3760   1.404       .  A
C3752      H3768   1.110       .  S
C3752      H3769   1.110       .  S
C3752      H3770   1.111       .  S
C3754      H3765   1.110       .  S
C3754      H3766   1.111       .  S
C3754      H3767   1.110       .  S
C3756      C3757   1.407       .  A
C3756      C3761   1.507       .  S
C3757      C3758   1.409       .  A
C3757      H3762   1.083       .  S
C3758      C3759   1.420       .  A
C3759      C3760   1.411       .  A
C3759      C3763   1.507       .  S
C3760      H3764   1.084       .  S
C3761      H3771   1.111       .  S
C3761      H3772   1.110       .  S
C3761      H3773   1.110       .  S
C3763      H3774   1.111       .  S
C3763      H3775   1.111       .  S
C3763      H3776   1.109       .  S
