geometry optimzed in LAMMPS
_audit_creation_date              2020-12-01 
_audit_creation_method            'lammps2cif' 
_symmetry_space_group_name_H-M    'P1' 
_symmetry_Int_Tables_number       1 
_symmetry_cell_setting            triclinic 
loop_ 
_symmetry_equiv_pos_as_xyz 
  x,y,z 
_cell_length_a                    19.85610871 
_cell_length_b                    81.63571468986981 
_cell_length_c                    42.282824335646595 
_cell_angle_alpha                 90.36735650087557 
_cell_angle_beta                  90.29292642390507 
_cell_angle_gamma                 89.65125801499414 
loop_ 
_atom_site_label 
_atom_site_type_symbol 
_atom_site_fract_x 
_atom_site_fract_y 
_atom_site_fract_z 
_atom_site_charge 
O1          O  0.06647741  0.93332939  0.43557726    -0.72200
O2          O  0.01757573  0.92991575  0.52302337    -0.72500
O3          O  0.00914294  0.95332173  0.47898160    -0.72300
O4          O  0.07074198  0.90964366  0.47953999    -0.72300
O5          O  0.17031098  0.91755432  0.49456005    -0.72300
O6          O  0.10895819  0.96206042  0.49134234    -0.72300
O7          O  0.11675209  0.93893438  0.53591096    -0.72300
O8          O  0.16649560  0.94071173  0.45020194    -0.72400
V9          V  0.04288905  0.93173243  0.47947609     1.35200
V10         V  0.13865598  0.93968920  0.49269396     1.35200
C11         C  0.12613024  0.93728334  0.42810102     0.77000
C12         C  0.05980521  0.93391761  0.54432119     0.77000
C13         C  0.04748872  0.96513349  0.48528148     0.76900
C14         C  0.13017051  0.90606408  0.48745111     0.76900
O15         O  0.27520774  0.81173897  0.43277358    -0.72200
O16         O  0.30945915  0.81190359  0.52206406    -0.72500
O17         O  0.32316011  0.78979156  0.47508021    -0.72300
O18         O  0.26511919  0.83380623  0.47994408    -0.72300
O19         O  0.16162542  0.82602977  0.48540764    -0.72300
O20         O  0.22243276  0.78147886  0.48618976    -0.72300
O21         O  0.20520951  0.80517945  0.52966444    -0.72300
O22         O  0.17489978  0.80239748  0.44183810    -0.72400
V23         V  0.29136300  0.81161446  0.47753856     1.35200
V24         V  0.19307486  0.80387163  0.48556072     1.35200
C25         C  0.21809199  0.80725045  0.42237766     0.77000
C26         C  0.26187482  0.80887295  0.54103428     0.77000
C27         C  0.28395512  0.77813791  0.48105434     0.76900
C28         C  0.20386297  0.83754381  0.48302711     0.76900
O29         O  0.29332137  0.92982147  0.29367339    -0.72200
O30         O  0.35001215  0.92909589  0.20691233    -0.72500
O31         O  0.35905675  0.95061383  0.25530374    -0.72300
O32         O  0.28766038  0.90811346  0.24556112    -0.72300
O33         O  0.18949016  0.91817204  0.23387764    -0.72300
O34         O  0.26512773  0.96127891  0.23875256    -0.72300
O35         O  0.25154902  0.93851602  0.19325016    -0.72300
O36         O  0.19925614  0.94126746  0.27897937    -0.72400
V37         V  0.32066059  0.92962817  0.25013186     1.35200
V38         V  0.22821636  0.93963478  0.23651034     1.35200
C39         C  0.23582085  0.93561097  0.30081964     0.77000
C40         C  0.30940003  0.93362719  0.18534252     0.77000
C41         C  0.32586368  0.96318449  0.24760977     0.76900
C42         C  0.22652339  0.90571157  0.23899438     0.76900
O43         O  0.07001561  0.81222020  0.28263699    -0.72200
O44         O  0.02248163  0.81337948  0.19455680    -0.72500
O45         O  0.01281570  0.79131391  0.24072155    -0.72300
O46         O  0.07601123  0.83493170  0.23661107    -0.72300
O47         O  0.17768621  0.82609868  0.22796002    -0.72300
O48         O  0.11005264  0.78211161  0.22540126    -0.72300
O49         O  0.12489146  0.80642550  0.18357415    -0.72300
O50         O  0.16675827  0.80199023  0.26992079    -0.72400
V51         V  0.04720201  0.81283649  0.23848894     1.35200
V52         V  0.14288204  0.80427263  0.22698207     1.35200
C53         C  0.12752270  0.80691494  0.29128367     0.77000
C54         C  0.06652777  0.80984581  0.17389316     0.77000
C55         C  0.04890136  0.77931772  0.23227842     0.76900
C56         C  0.13747183  0.83802370  0.23232946     0.76900
O57         O  0.31582169  0.42731920  0.79090033    -0.72200
O58         O  0.35064860  0.42963777  0.70140017    -0.72500
O59         O  0.36455307  0.45010817  0.75075681    -0.72300
O60         O  0.30715521  0.40650792  0.74122783    -0.72300
O61         O  0.20304829  0.41453670  0.73836228    -0.72300
O62         O  0.26520536  0.45898933  0.73742103    -0.72300
O63         O  0.24525047  0.43526465  0.69408234    -0.72300
O64         O  0.21758764  0.43826227  0.78193044    -0.72400
V65         V  0.33273785  0.42854363  0.74604270     1.35200
V66         V  0.23464888  0.43666269  0.73819913     1.35200
C67         C  0.25958865  0.43252743  0.80137665     0.77000
C68         C  0.30239556  0.43265509  0.68234167     0.77000
C69         C  0.32674416  0.46195452  0.74357501     0.76900
C70         C  0.24580945  0.40289916  0.73898760     0.76900
O71         O  0.09858452  0.31141172  0.78315266    -0.72200
O72         O  0.05360095  0.31010130  0.69488888    -0.72500
O73         O  0.03894124  0.28946967  0.74412018    -0.72300
O74         O  0.10760877  0.33199814  0.73479407    -0.72300
O75         O  0.20892289  0.32220430  0.73009973    -0.72300
O76         O  0.13279382  0.27902486  0.72756258    -0.72300
O77         O  0.15690799  0.30269954  0.68532689    -0.72300
O78         O  0.18973796  0.29811371  0.77245523    -0.72400
V79         V  0.07618984  0.31049337  0.73904953     1.35200
V80         V  0.17042073  0.30064943  0.72911938     1.35200
C81         C  0.15291143  0.30497284  0.79291802     0.77000
C82         C  0.09990904  0.30691105  0.67509604     0.77000
C83         C  0.07204710  0.27695183  0.73600559     0.76900
C84         C  0.16962522  0.33454475  0.73191308     0.76900
O85         O  0.08995310  0.43181586  0.93531745    -0.72200
O86         O  0.03650565  0.42885796  0.02236459    -0.72500
O87         O  0.02840633  0.45210746  0.97753722    -0.72300
O88         O  0.09303247  0.40864060  0.98013814    -0.72300
O89         O  0.19068642  0.41703672  0.99688819    -0.72300
O90         O  0.12736240  0.46131185  0.98987276    -0.72300
O91         O  0.13335179  0.43887792  0.03616727    -0.72300
O92         O  0.18900231  0.43939034  0.95103312    -0.72400
V93         V  0.06376622  0.43059167  0.97903289     1.35200
V94         V  0.15812164  0.43904966  0.99316037     1.35200
C95         C  0.15035100  0.43550249  0.92853447     0.77000
C96         C  0.07718167  0.43318848  0.04412991     0.77000
C97         C  0.06585977  0.46417035  0.98335839     0.76900
C98         C  0.15180334  0.40534432  0.98943525     0.76900
O99         O  0.18097353  0.32518617  0.98709371    -0.72200
O100        O  0.24627783  0.28099197  0.99001950    -0.72500
O101        O  0.22543449  0.30524955  0.03254580    -0.72300
O102        O  0.19825617  0.30089097  0.94481355    -0.72300
O103        O  0.29502884  0.31202744  0.93598366    -0.72300
O104        O  0.32991555  0.31107570  0.02523784    -0.72300
O105        O  0.34523609  0.28977312  0.97767409    -0.72300
O106        O  0.28445791  0.33337880  0.98401907    -0.72400
V107        V  0.21459602  0.30318309  0.98845896     1.35200
V108        V  0.31193017  0.31137151  0.98075415     1.35200
C109        C  0.22276619  0.33685466  0.98574807     0.77000
C110        C  0.30774440  0.27789132  0.98419155     0.77000
C111        C  0.28203800  0.30850095  0.04434487     0.76900
C112        C  0.23935330  0.30670755  0.92531259     0.76900
O113        O  0.20822415  0.18126706  0.54082911    -0.72200
O114        O  0.15566690  0.18405129  0.45384126    -0.72500
O115        O  0.20490263  0.16056669  0.49176816    -0.72300
O116        O  0.15437655  0.20471386  0.50299825    -0.72300
O117        O  0.24950358  0.21235854  0.48288650    -0.72300
O118        O  0.30946865  0.16776381  0.48829745    -0.72300
O119        O  0.26079334  0.18714338  0.44224329    -0.72300
O120        O  0.30134292  0.19312610  0.52873156    -0.72400
V121        V  0.18229660  0.18279951  0.49727451     1.35200
V122        V  0.27883704  0.19000606  0.48574155     1.35200
C123        C  0.26482347  0.18689654  0.54966930     0.77000
C124        C  0.20070907  0.18570348  0.43293667     0.77000
C125        C  0.26599544  0.15646721  0.49016591     0.76900
C126        C  0.19060117  0.21599001  0.49225303     0.76900
O127        O  0.39832847  0.06076659  0.54387588    -0.72200
O128        O  0.44598158  0.06367686  0.45640316    -0.72500
O129        O  0.39277982  0.08404341  0.49945981    -0.72300
O130        O  0.45545977  0.04050508  0.50077643    -0.72300
O131        O  0.35640209  0.03158165  0.48755654    -0.72300
O132        O  0.29261243  0.07593759  0.48585775    -0.72300
O133        O  0.34610349  0.05507036  0.44363940    -0.72300
O134        O  0.29904989  0.05234539  0.52981975    -0.72400
V135        V  0.42116821  0.06204303  0.49994807     1.35200
V136        V  0.32544465  0.05386249  0.48706604     1.35200
C137        C  0.33946538  0.05634787  0.55157954     0.77000
C138        C  0.40329025  0.05992521  0.43516484     0.77000
C139        C  0.33305624  0.08752598  0.49192279     0.76900
C140        C  0.41784910  0.02863462  0.49388304     0.76900
O141        O  0.17775493  0.06344429  0.68804997    -0.72200
O142        O  0.13463320  0.06438074  0.77664218    -0.72500
O143        O  0.19107998  0.08509452  0.73524758    -0.72300
O144        O  0.11789401  0.04277743  0.72854444    -0.72300
O145        O  0.21396841  0.03194337  0.74094544    -0.72300
O146        O  0.28920012  0.07503939  0.74650400    -0.72300
O147        O  0.23348788  0.05411754  0.78697411    -0.72300
O148        O  0.27471620  0.05257207  0.69989475    -0.72400
V149        V  0.15714700  0.06368840  0.73237992     1.35200
V150        V  0.25099191  0.05358599  0.74320766     1.35200
C151        C  0.23466096  0.05800792  0.67918830     0.77000
C152        C  0.17790877  0.05950659  0.79681390     0.77000
C153        C  0.25188557  0.08753281  0.74208453     0.76900
C154        C  0.15190114  0.03008533  0.73433497     0.76900
O155        O  0.41506568  0.17806383  0.68926015    -0.72200
O156        O  0.46462965  0.18023933  0.77698920    -0.72500
O157        O  0.40762661  0.15789067  0.73893885    -0.72300
O158        O  0.47589010  0.20039847  0.72703150    -0.72300
O159        O  0.38367047  0.21064045  0.74619451    -0.72300
O160        O  0.30678714  0.16775832  0.74105239    -0.72300
O161        O  0.36048537  0.18636305  0.78718783    -0.72300
O162        O  0.32583032  0.19231839  0.70054978    -0.72400
V163        V  0.43945747  0.17933485  0.73315263     1.35200
V164        V  0.34573681  0.18913967  0.74360717     1.35200
C165        C  0.36116645  0.18509319  0.68009228     0.77000
C166        C  0.41889684  0.18315971  0.79719055     0.77000
C167        C  0.34534145  0.15528043  0.73993475     0.76900
C168        C  0.44344891  0.21279562  0.73651478     0.76900
O169        O  0.41563423  0.56219845  0.03668302    -0.72200
O170        O  0.47223862  0.56334123  0.94979032    -0.72500
O171        O  0.41561976  0.58469138  0.99006431    -0.72300
O172        O  0.47615695  0.54089425  0.99591090    -0.72300
O173        O  0.37964376  0.53212499  0.97913237    -0.72300
O174        O  0.31521888  0.57658034  0.97845877    -0.72300
O175        O  0.37114347  0.55621411  0.93571492    -0.72300
O176        O  0.31934224  0.55241611  0.02126780    -0.72400
V177        V  0.44302507  0.56258237  0.99298740     1.35200
V178        V  0.34827297  0.55445634  0.97892051     1.35200
C179        C  0.35701687  0.55715393  0.04351094     0.77000
C180        C  0.42987758  0.56030122  0.92798666     0.77000
C181        C  0.35552046  0.58835642  0.98354923     0.76900
C182        C  0.43982369  0.52898169  0.98768138     0.76900
O183        O  0.19935789  0.68277479  0.03042506    -0.72200
O184        O  0.15386312  0.67791727  0.94257247    -0.72500
O185        O  0.21345677  0.65921721  0.98643372    -0.72300
O186        O  0.13510294  0.70139084  0.98697312    -0.72300
O187        O  0.23245702  0.71230594  0.97769864    -0.72300
O188        O  0.30809024  0.66911777  0.96983903    -0.72300
O189        O  0.24580638  0.69045302  0.93090618    -0.72300
O190        O  0.29815335  0.69119438  0.01672740    -0.72400
V191        V  0.17713019  0.68057009  0.98642091     1.35200
V192        V  0.26933966  0.69060924  0.97409756     1.35200
C193        C  0.25840112  0.68714886  0.03841252     0.77000
C194        C  0.19280490  0.68349332  0.92155319     0.77000
C195        C  0.27294081  0.65679682  0.97730060     0.76900
C196        C  0.16972530  0.71403785  0.98253032     0.76900
O197        O  0.18399494  0.56075957  0.17792236    -0.72200
O198        O  0.14138268  0.56534235  0.26620051    -0.72500
O199        O  0.19274704  0.58470375  0.22174728    -0.72300
O200        O  0.12782084  0.54122573  0.22262931    -0.72300
O201        O  0.22827691  0.53198082  0.23249442    -0.72300
O202        O  0.29185028  0.57620844  0.23652694    -0.72300
O203        O  0.23874271  0.55492622  0.27766659    -0.72300
O204        O  0.28489245  0.55302130  0.19132802    -0.72400
V205        V  0.16324789  0.56276158  0.22224287     1.35200
V206        V  0.25898799  0.55418960  0.23418492     1.35200
C207        C  0.24333048  0.55660817  0.16980824     0.77000
C208        C  0.18383508  0.56098942  0.28711502     0.77000
C209        C  0.25236231  0.58798114  0.22975516     0.76900
C210        C  0.16609544  0.52915709  0.22808297     0.76900
O211        O  0.40670956  0.68137761  0.17948737    -0.72200
O212        O  0.43910336  0.68067275  0.26901384    -0.72500
O213        O  0.39208215  0.65948978  0.22614875    -0.72300
O214        O  0.45802300  0.70264592  0.22245923    -0.72300
O215        O  0.35902138  0.71247722  0.23311406    -0.72300
O216        O  0.28994673  0.66849319  0.23176337    -0.72300
O217        O  0.33637878  0.68917754  0.27640476    -0.72300
O218        O  0.30778367  0.69191731  0.18840385    -0.72400
V219        V  0.42208189  0.68128985  0.22437613     1.35200
V220        V  0.32523235  0.69038754  0.23221673     1.35200
C221        C  0.35052469  0.68655442  0.16896957     0.77000
C222        C  0.39180093  0.68447065  0.28779901     0.77000
C223        C  0.33037144  0.65642986  0.22897781     0.76900
C224        C  0.42136033  0.71494483  0.22830362     0.76900
O225        O  0.51353628  0.93200263  0.78873231    -0.72200
O226        O  0.05900024  0.93253469  0.70071130    -0.72500
O227        O  0.06406248  0.95408727  0.74858807    -0.72300
O228        O  0.51231402  0.90989644  0.74106749    -0.72300
O229        O  0.40805708  0.91733535  0.73424203    -0.72300
O230        O  0.46630893  0.96202725  0.73158329    -0.72300
O231        O  0.45452608  0.93739936  0.68986802    -0.72300
O232        O  0.41536438  0.94177785  0.77674042    -0.72400
V233        V  0.03535176  0.93224701  0.74463852     1.35200
V234        V  0.43782497  0.93956613  0.73347324     1.35200
C235        C  0.45591337  0.93691505  0.79778994     0.77000
C236        C  0.51348576  0.93493974  0.68004764     0.77000
C237        C  0.02670275  0.96553906  0.73898520     0.76900
C238        C  0.45160896  0.90598558  0.73696751     0.76900
O239        O  0.31374172  0.81118153  0.78436036    -0.72200
O240        O  0.25454008  0.81471085  0.69819142    -0.72500
O241        O  0.24850589  0.79146643  0.74230088    -0.72300
O242        O  0.31626166  0.83445759  0.73992772    -0.72300
O243        O  0.41471160  0.82543190  0.72625947    -0.72300
O244        O  0.34370792  0.78175649  0.72578363    -0.72300
O245        O  0.35311207  0.80604077  0.68317296    -0.72300
O246        O  0.40919670  0.80113450  0.76815247    -0.72400
V247        V  0.28520576  0.81273679  0.74100592     1.35200
V248        V  0.37825454  0.80372055  0.72607810     1.35200
C249        C  0.37255747  0.80589082  0.79067122     0.77000
C250        C  0.29482677  0.81104845  0.67607800     0.77000
C251        C  0.28291497  0.77923352  0.73363189     0.76900
C252        C  0.37687788  0.83743642  0.73366457     0.76900
O253        O  0.31984278  0.93073156  0.94163922    -0.72200
O254        O  0.29703302  0.93047658  0.03174938    -0.72500
O255        O  0.27405687  0.95216286  0.98542773    -0.72300
O256        O  0.33866945  0.90903418  0.98809249    -0.72300
O257        O  0.44173244  0.91750490  0.99108740    -0.72300
O258        O  0.37461418  0.96160410  0.99411409    -0.72300
O259        O  0.40078055  0.93833936  0.03733180    -0.72300
O260        O  0.41977613  0.94089773  0.94855204    -0.72400
V261        V  0.30936740  0.93082418  0.98683239     1.35200
V262        V  0.40730923  0.93945848  0.99271562     1.35200
C263        C  0.37494354  0.93563156  0.92997084     0.77000
C264        C  0.34596750  0.93419195  0.04980138     0.77000
C265        C  0.31198288  0.96419887  0.99030312     0.76900
C266        C  0.40051576  0.90573918  0.98845535     0.76900
O267        O  0.52906262  0.80920717  0.92940693    -0.72200
O268        O  0.06864092  0.81176000  0.01798844    -0.72500
O269        O  0.07713955  0.78835348  0.97316142    -0.72300
O270        O  0.52445406  0.83264756  0.97424954    -0.72300
O271        O  0.42165852  0.82587620  0.98545455    -0.72300
O272        O  0.47491927  0.78071554  0.98351588    -0.72300
O273        O  0.46598753  0.80434231  0.02803361    -0.72300
O274        O  0.42661794  0.80235319  0.94072056    -0.72400
V275        V  0.04783550  0.81031639  0.97386178     1.35200
V276        V  0.44923605  0.80342583  0.98413042     1.35200
C277        C  0.47022432  0.80547726  0.92007942     0.77000
C278        C  0.52304364  0.80867319  0.03802242     0.77000
C279        C  0.03611354  0.77698138  0.97823960     0.76900
C280        C  0.46515620  0.83690368  0.98078118     0.76900
O281        O  0.44441984  0.55911633  0.68330221    -0.72200
O282        O  0.41356196  0.56084037  0.77304611    -0.72500
O283        O  0.45028772  0.58235394  0.72870656    -0.72300
O284        O  0.40298996  0.53776528  0.72796138    -0.72300
O285        O  0.00572650  0.53065848  0.73939684    -0.72300
O286        O  0.05584634  0.57599685  0.73436852    -0.72300
O287        O  0.01956820  0.55551038  0.78065947    -0.72300
O288        O  0.04704059  0.55107087  0.69271256    -0.72400
V289        V  0.42983185  0.55985592  0.72831032     1.35200
V290        V  0.03008405  0.55339719  0.73651925     1.35200
C291        C  0.00209600  0.55495955  0.67295365     0.77000
C292        C  0.46236488  0.55854018  0.79211498     0.77000
C293        C  0.01047415  0.58693870  0.73125230     0.76900
C294        C  0.44446200  0.52667613  0.73527617     0.76900
O295        O  0.13635644  0.68339627  0.67679105    -0.72200
O296        O  0.18013842  0.67929698  0.76473445    -0.72500
O297        O  0.12843450  0.65963392  0.72028214    -0.72300
O298        O  0.19242536  0.70308938  0.72131584    -0.72300
O299        O  0.09145178  0.71234460  0.72959345    -0.72300
O300        O  0.03022409  0.66800888  0.73637998    -0.72300
O301        O  0.08389133  0.69030834  0.77629025    -0.72300
O302        O  0.03456911  0.69015805  0.69004532    -0.72400
V303        V  0.15755901  0.68157834  0.72093139     1.35200
V304        V  0.06187905  0.69007529  0.73280024     1.35200
C305        C  0.07633271  0.68684477  0.66857210     0.77000
C306        C  0.13889205  0.68419543  0.78562865     0.77000
C307        C  0.06967455  0.65629486  0.72912943     0.76900
C308        C  0.15356815  0.71519423  0.72532732     0.76900
O309        O  0.14403277  0.55957980  0.53253854    -0.72200
O310        O  0.18298851  0.56446341  0.44447379    -0.72500
O311        O  0.12711068  0.58319098  0.48901050    -0.72300
O312        O  0.20364655  0.54074701  0.48788970    -0.72300
O313        O  0.10530166  0.53010818  0.47918114    -0.72300
O314        O  0.03067747  0.57328668  0.47390652    -0.72300
O315        O  0.08936728  0.55235536  0.43313483    -0.72300
O316        O  0.04425989  0.55096770  0.51999344    -0.72400
V317        V  0.16273173  0.56172956  0.48832687     1.35200
V318        V  0.06926110  0.55183972  0.47681583     1.35200
C319        C  0.08605707  0.55496853  0.54123012     0.77000
C320        C  0.14187476  0.55941664  0.42361850     0.77000
C321        C  0.06691146  0.58556373  0.48063554     0.76900
C322        C  0.16798039  0.52816952  0.48378743     0.76900
O323        O  0.41417319  0.67901034  0.53189620    -0.72200
O324        O  0.36880961  0.67823535  0.44349110    -0.72500
O325        O  0.42045631  0.65671256  0.48494731    -0.72300
O326        O  0.35865264  0.70039498  0.49058202    -0.72300
O327        O  0.45741057  0.70928904  0.47754770    -0.72300
O328        O  0.02194501  0.66498655  0.47556839    -0.72300
O329        O  0.47070346  0.68609379  0.43309558    -0.72300
O330        O  0.01285979  0.68840272  0.51979871    -0.72400
V331        V  0.39240850  0.67876534  0.48756784     1.35200
V332        V  0.98872008  0.68703896  0.47674877     1.35200
C333        C  0.97227470  0.68371121  0.54056373     0.77000
C334        C  0.41308892  0.68211341  0.42336790     0.77000
C335        C  0.98137749  0.65327367  0.47999845     0.76900
C336        C  0.39613629  0.71228202  0.48400656     0.76900
O337        O  0.32360246  0.43180039  0.43672129    -0.72200
O338        O  0.28537216  0.43041086  0.52555439    -0.72500
O339        O  0.26636036  0.45248882  0.47910717    -0.72300
O340        O  0.33894577  0.40976241  0.48286424    -0.72300
O341        O  0.43804423  0.41952735  0.49357764    -0.72300
O342        O  0.36466726  0.46284699  0.48915033    -0.72300
O343        O  0.38427693  0.44060190  0.53517148    -0.72300
O344        O  0.42204899  0.44180143  0.44788665    -0.72400
V345        V  0.30536043  0.43136093  0.48124962     1.35200
V346        V  0.40021799  0.44104125  0.49121953     1.35200
C347        C  0.38057198  0.43679487  0.42740968     0.77000
C348        C  0.32972642  0.43497024  0.54543075     0.77000
C349        C  0.30240990  0.46496153  0.48350280     0.76900
C350        C  0.40029945  0.40726997  0.48889012     0.76900
O351        O  0.44636738  0.32790255  0.48603338    -0.72200
O352        O  0.01051927  0.28376989  0.48968848    -0.72500
O353        O  0.49666269  0.30833393  0.53096556    -0.72300
O354        O  0.45674617  0.30320526  0.44436473    -0.72300
O355        O  0.05239693  0.31433159  0.43229741    -0.72300
O356        O  0.10105051  0.31331183  0.51994335    -0.72300
O357        O  0.10711852  0.29200862  0.47219829    -0.72300
O358        O  0.04941452  0.33593293  0.48086054    -0.72400
V359        V  0.47929260  0.30592822  0.48745033     1.35200
V360        V  0.07571204  0.31378623  0.47634961     1.35200
C361        C  0.48805921  0.33955421  0.48420395     0.77000
C362        C  0.07082622  0.28050430  0.48202661     0.77000
C363        C  0.05616342  0.31058055  0.54041093     0.76900
C364        C  0.49589196  0.30862052  0.42361282     0.76900
O365        O  0.03670456  0.43054751  0.28946408    -0.72200
O366        O  0.07626698  0.43022260  0.20032644    -0.72500
O367        O  0.08654269  0.45241088  0.24727213    -0.72300
O368        O  0.03211323  0.40831063  0.24208609    -0.72300
O369        O  0.42809760  0.41580974  0.23637940    -0.72300
O370        O  0.48676352  0.46055775  0.23345172    -0.72300
O371        O  0.47195295  0.43585429  0.19123899    -0.72300
O372        O  0.43767090  0.44046539  0.27832414    -0.72400
V373        V  0.05609443  0.43055889  0.24476216     1.35200
V374        V  0.45807326  0.43808550  0.23505969     1.35200
C375        C  0.47921513  0.43555476  0.29875290     0.77000
C376        C  0.02899938  0.43244941  0.18030611     0.77000
C377        C  0.04772133  0.46405118  0.23987198     0.76900
C378        C  0.47134548  0.40434168  0.23886855     0.76900
O379        O  0.32864866  0.30994607  0.28889651    -0.72200
O380        O  0.28112280  0.31327504  0.20128045    -0.72500
O381        O  0.26763940  0.29030235  0.24569733    -0.72300
O382        O  0.33767063  0.33301114  0.24441210    -0.72300
O383        O  0.43544783  0.32365218  0.22981803    -0.72300
O384        O  0.36576009  0.28001701  0.23471335    -0.72300
O385        O  0.37817495  0.30256434  0.18920575    -0.72300
O386        O  0.42743911  0.30103048  0.27510455    -0.72400
V387        V  0.30562384  0.31138724  0.24490903     1.35200
V388        V  0.39978118  0.30195032  0.23251737     1.35200
C389        C  0.38776988  0.30544966  0.29669206     0.77000
C390        C  0.32271205  0.30854849  0.18039468     0.77000
C391        C  0.30360720  0.27785431  0.24026863     0.76900
C392        C  0.39740108  0.33575551  0.23631908     0.76900
O393        O  0.16247573  0.05921705  0.04207701    -0.72200
O394        O  0.19894260  0.06112270  0.95270045    -0.72500
O395        O  0.15187722  0.08197697  0.99618116    -0.72300
O396        O  0.21497683  0.03869343  0.99819019    -0.72300
O397        O  0.11523592  0.02955228  0.98658975    -0.72300
O398        O  0.04975394  0.07381862  0.98864754    -0.72300
O399        O  0.09626166  0.05331320  0.94376391    -0.72300
O400        O  0.06343940  0.05001840  0.03101574    -0.72400
V401        V  0.18014807  0.06007263  0.99722539     1.35200
V402        V  0.08316170  0.05179468  0.98770932     1.35200
C403        C  0.10536223  0.05435791  0.05176765     0.77000
C404        C  0.15249081  0.05755808  0.93306490     0.77000
C405        C  0.09085371  0.08554047  0.99239376     0.76900
C406        C  0.17742182  0.02681027  0.99165809     0.76900
O407        O  0.05234718  0.16562075  0.98494756    -0.72200
O408        O  0.99003323  0.20983273  0.99004050    -0.72500
O409        O  0.04138895  0.18813993  0.03124802    -0.72300
O410        O  0.00462007  0.18740103  0.94362766    -0.72300
O411        O  0.40499123  0.17751120  0.95227343    -0.72300
O412        O  0.93867500  0.18082437  0.04138300    -0.72300
O413        O  0.38840240  0.20091353  0.99621953    -0.72300
O414        O  0.95219815  0.15743169  0.99738264    -0.72400
V415        V  0.02015485  0.18760967  0.98769419     1.35200
V416        V  0.42292510  0.17936241  0.99668591     1.35200
C417        C  0.01226596  0.15398626  0.99058358     0.77000
C418        C  0.42766972  0.21285154  0.99312863     0.77000
C419        C  0.99697806  0.18466187  0.05123628     0.76900
C420        C  0.44969459  0.18202059  0.93291763     0.76900
O421        O  0.45533265  0.06110541  0.19122319    -0.72200
O422        O  0.40870939  0.06103030  0.27921254    -0.72500
O423        O  0.45350143  0.08346259  0.23842814    -0.72300
O424        O  0.40646415  0.03893782  0.23228161    -0.72300
O425        O  0.50507757  0.03187361  0.25005860    -0.72300
O426        O  0.05851304  0.07681922  0.24468860    -0.72300
O427        O  0.51398309  0.05727898  0.29043529    -0.72300
O428        O  0.05411072  0.05153693  0.20396821    -0.72400
V429        V  0.43284475  0.06101730  0.23536120     1.35200
V430        V  0.03114663  0.05443817  0.24696725     1.35200
C431        C  0.01344682  0.05618495  0.18282688     0.77000
C432        C  0.45460149  0.05938703  0.29999896     0.77000
C433        C  0.01376096  0.08788851  0.24185951     0.76900
C434        C  0.44534380  0.02789177  0.24242822     0.76900
O435        O  0.14867730  0.18099525  0.18960179    -0.72200
O436        O  0.19237763  0.18102201  0.27784036    -0.72500
O437        O  0.13865040  0.15953763  0.23704500    -0.72300
O438        O  0.20573451  0.20246240  0.23061350    -0.72300
O439        O  0.10698341  0.21255747  0.24105119    -0.72300
O440        O  0.03881122  0.16895774  0.24791250    -0.72300
O441        O  0.09275866  0.19082719  0.28799741    -0.72300
O442        O  0.04973842  0.19086417  0.20095408    -0.72400
V443        V  0.16941349  0.18122798  0.23390262     1.35200
V444        V  0.07398735  0.19063647  0.24420353     1.35200
C445        C  0.09093611  0.18580008  0.18048031     0.77000
C446        C  0.14907477  0.18578102  0.29788187     0.77000
C447        C  0.07812526  0.15682158  0.24391901     0.76900
C448        C  0.16887590  0.21485849  0.23528706     0.76900
C449        C  0.50287152  0.13383297  0.22734741    -0.02300
C450        C  0.05569480  0.13966613  0.24656038     0.07400
C451        C  0.09340209  0.12856165  0.26517690    -0.02400
C452        C  0.07917038  0.11169107  0.26415660    -0.02400
C453        C  0.02981788  0.10564041  0.24297359     0.07500
C454        C  0.49220900  0.11686112  0.22428979    -0.02600
Br455      Br  0.43006421  0.10924778  0.19209632    -0.01200
Br456      Br  0.44606560  0.14901000  0.20438602    -0.01200
Br457      Br  0.12555308  0.09721985  0.29315436    -0.14000
Br458      Br  0.16357859  0.13650413  0.29309701    -0.01200
C459        C  0.05968829  0.17041498  0.13114501    -0.02300
C460        C  0.07015062  0.18548333  0.14687078     0.07400
C461        C  0.05319100  0.20025967  0.13155775    -0.02400
C462        C  0.02759622  0.19997830  0.10043107    -0.02400
C463        C  0.01509416  0.18490956  0.08512638     0.07500
C464        C  0.03005717  0.17012512  0.10077468    -0.02600
Br465      Br  0.51026358  0.14947010  0.08048253    -0.01200
Br466      Br  0.08611478  0.15015935  0.15104792    -0.01200
Br467      Br  0.00958060  0.22024438  0.07860371    -0.01200
Br468      Br  0.06718564  0.22094560  0.15291189    -0.01200
C469        C  0.08972562  0.06582920  0.13986709    -0.02300
C470        C  0.03530882  0.05602126  0.14932654     0.07400
C471        C  0.00619522  0.04509588  0.12758076    -0.02400
C472        C  0.03008949  0.04415789  0.09620312    -0.02400
C473        C  0.08483164  0.05415459  0.08610035     0.07500
C474        C  0.11491846  0.06484117  0.10868801    -0.02600
Br475      Br  0.18946529  0.07875668  0.09778824    -0.01200
Br476      Br  0.12807948  0.08127027  0.16968007    -0.01200
Br477      Br  0.98663303  0.02849719  0.06836000    -0.01200
Br478      Br  0.43503582  0.03080752  0.14160069    -0.01200
C479        C  0.11032376  0.11513123  0.00748232    -0.02300
C480        C  0.06991974  0.10308305  0.99204958     0.07400
C481        C  0.01190515  0.10816058  0.97510982    -0.02400
C482        C  0.99260944  0.12476464  0.97510358    -0.02400
C483        C  0.03403870  0.13668396  0.98969647     0.07500
C484        C  0.09375720  0.13184532  0.00514850    -0.02600
Br485      Br  0.15195258  0.14801820  0.02478071    -0.01200
Br486      Br  0.18710181  0.10936942  0.03371837    -0.01200
Br487      Br  0.90953818  0.13101896  0.95408074    -0.01200
Br488      Br  0.96014477  0.09289428  0.94972543    -0.01200
C489        C  0.22145822  0.25753593  0.26213651    -0.02300
C490        C  0.27144399  0.26141321  0.23961034     0.07400
C491        C  0.28462391  0.25026522  0.21467088    -0.02400
C492        C  0.24895213  0.23539270  0.21251050    -0.02400
C493        C  0.19960152  0.23144504  0.23525110     0.07500
C494        C  0.18545112  0.24273106  0.25982766    -0.02600
Br495      Br  0.11890666  0.23776910  0.29157349    -0.01200
Br496      Br  0.20386727  0.27207226  0.29752443    -0.01200
Br497      Br  0.26554003  0.22086508  0.17702581    -0.01200
Br498      Br  0.34869312  0.25562018  0.18210865    -0.01200
C499        C  0.99049787  0.37494949  0.25564491    -0.02300
C500        C  0.45290848  0.38664943  0.23784880     0.07400
C501        C  0.39985861  0.38113466  0.21807758    -0.02400
C502        C  0.38346647  0.36437901  0.21686029    -0.02400
C503        C  0.42042019  0.35289279  0.23486490     0.07500
C504        C  0.97406008  0.35818943  0.25408763    -0.02600
Br505      Br  0.02187255  0.34254074  0.28019154    -0.01200
Br506      Br  0.06290785  0.38144313  0.28381544    -0.01200
Br507      Br  0.31054421  0.35709254  0.18982427    -0.01200
Br508      Br  0.35112731  0.39613833  0.19099084    -0.01200
C509        C  0.43291712  0.32130619  0.37881344    -0.02300
C510        C  0.47364222  0.30844611  0.39030549     0.07400
C511        C  0.98449946  0.29442263  0.37154172    -0.02400
C512        C  0.45418913  0.29312191  0.34144177    -0.02400
C513        C  0.41279661  0.30597447  0.32981869     0.07500
C514        C  0.40283138  0.32015510  0.34863170    -0.02600
Br515      Br  0.35141697  0.33853492  0.33271642    -0.01200
Br516      Br  0.41859109  0.34059815  0.40455442    -0.01200
Br517      Br  0.96794746  0.27332683  0.31691513    -0.01200
Br518      Br  0.04087095  0.27694304  0.38737667    -0.01200
C519        C  0.42906310  0.45082418  0.38031001    -0.02300
C520        C  0.40080986  0.43662980  0.39366858     0.07400
C521        C  0.39912243  0.42199273  0.37574426    -0.02400
C522        C  0.42684869  0.42151858  0.34505970    -0.02400
C523        C  0.45808379  0.43550059  0.33234356     0.07500
C524        C  0.95717678  0.45026307  0.34977591    -0.02600
Br525      Br  0.99154813  0.46997503  0.33115530    -0.01200
Br526      Br  0.92588564  0.47137938  0.40318573    -0.01200
Br527      Br  0.41802707  0.40195223  0.31973101    -0.01200
Br528      Br  0.36088170  0.40238871  0.39341738    -0.01200
C529        C  0.48126845  0.38570462  0.47071899    -0.02300
C530        C  0.42619435  0.39029767  0.48969137     0.07400
C531        C  0.39185864  0.37832233  0.50723947    -0.02400
C532        C  0.41239635  0.36180517  0.50581008    -0.02400
C533        C  0.46650060  0.35701662  0.48605264     0.07500
C534        C  0.00112037  0.36915225  0.46863364    -0.02600
Br535      Br  0.07350816  0.36343454  0.44003349    -0.01200
Br536      Br  0.02681056  0.40195428  0.44562791    -0.01200
Br537      Br  0.36763562  0.34613526  0.53254591    -0.01200
Br538      Br  0.31712608  0.38453673  0.53407496    -0.01200
C539        C  0.24495120  0.50752113  0.50891548    -0.02300
C540        C  0.20017282  0.51173117  0.48413268     0.07400
C541        C  0.19059536  0.50070698  0.45868799    -0.02400
C542        C  0.22585801  0.48566068  0.45795345    -0.02400
C543        C  0.27084412  0.48147402  0.48272912     0.07500
C544        C  0.28058022  0.49254454  0.50808537    -0.02600
Br545      Br  0.34027768  0.48697931  0.54267408    -0.01200
Br546      Br  0.25444234  0.52180181  0.54527978    -0.01200
Br547      Br  0.21503561  0.47121682  0.42187799    -0.01200
Br548      Br  0.13150930  0.50645369  0.42396417    -0.01200
C549        C  0.06625542  0.61319815  0.45595157    -0.02300
C550        C  0.04089419  0.60244243  0.47889338     0.07400
C551        C  0.99633906  0.60828001  0.50210188    -0.02400
C552        C  0.97788009  0.62494604  0.50282085    -0.02400
C553        C  0.00340298  0.63587405  0.47987629     0.07500
C554        C  0.04732418  0.62985248  0.45626743    -0.02600
Br555      Br  0.07944271  0.64406257  0.42331799    -0.01200
Br556      Br  0.12593504  0.60494633  0.42354939    -0.01200
Br557      Br  0.42083291  0.63268894  0.53677929    -0.01200
Br558      Br  0.46314906  0.59346939  0.53381259    -0.01200
C559        C  0.04664269  0.67285446  0.58343102    -0.02300
C560        C  0.99478791  0.68367455  0.57390374     0.07400
C561        C  0.97244158  0.69597923  0.59478852    -0.02400
C562        C  0.00318357  0.69782773  0.62470284    -0.02400
C563        C  0.05295808  0.68649347  0.63505098     0.07500
C564        C  0.07413523  0.67388548  0.61418354    -0.02600
Br565      Br  0.13800741  0.65736099  0.62768022    -0.01200
Br566      Br  0.07982269  0.65642339  0.55427029    -0.01200
Br567      Br  0.98028125  0.71679973  0.65014990    -0.01200
Br568      Br  0.40066238  0.71057077  0.58196231    -0.01200
C569        C  0.05989295  0.56806731  0.62719749    -0.02300
C570        C  0.01946720  0.55529595  0.63880599     0.07400
C571        C  0.50322636  0.54207228  0.61870203    -0.02400
C572        C  0.02671216  0.54165987  0.58717839    -0.02400
C573        C  0.06584041  0.55470134  0.57522035     0.07500
C574        C  0.08185995  0.56796870  0.59551255    -0.02600
Br575      Br  0.13096655  0.58660275  0.57989928    -0.01200
Br576      Br  0.08630785  0.58575840  0.65493359    -0.01200
Br577      Br  0.50851611  0.52260623  0.56124614    -0.01200
Br578      Br  0.45101820  0.52417246  0.63493045    -0.01200
C579        C  0.07051607  0.61166879  0.75307935    -0.02300
C580        C  0.02570563  0.60476384  0.73069607     0.07400
C581        C  0.49183199  0.61521872  0.70897626    -0.02400
C582        C  0.50458237  0.63219597  0.70909612    -0.02400
C583        C  0.04978440  0.63893775  0.73124135     0.07500
C584        C  0.08232595  0.62867474  0.75331831    -0.02600
Br585      Br  0.14220193  0.63809294  0.78454124    -0.01200
Br586      Br  0.11300711  0.59814644  0.78484721    -0.01200
Br587      Br  0.46314823  0.64617331  0.67773905    -0.01200
Br588      Br  0.42955253  0.60650939  0.67788858    -0.01200
C589        C  0.22618285  0.98335620  0.01247689    -0.02300
C590        C  0.28120086  0.98064707  0.99195263     0.07400
C591        C  0.30024500  0.99293822  0.97066516    -0.02400
C592        C  0.26297961  0.00763710  0.96917282    -0.02400
C593        C  0.20816288  0.01036412  0.98981297     0.07500
C594        C  0.19051176  0.99826844  0.01169983    -0.02600
Br595      Br  0.12056619  0.00250564  0.04208318    -0.01200
Br596      Br  0.20100457  0.96689852  0.04281801    -0.01200
Br597      Br  0.28587543  0.02385302  0.93800105    -0.01200
Br598      Br  0.37616235  0.98954635  0.94300956    -0.01200
C599        C  0.47554658  0.88188713  0.00271927    -0.02300
C600        C  0.42153817  0.88840459  0.98491696     0.07400
C601        C  0.38363734  0.87792126  0.96472013    -0.02400
C602        C  0.39722027  0.86103068  0.96382881    -0.02400
C603        C  0.44861633  0.85445997  0.98289952     0.07500
C604        C  0.48827558  0.86491139  0.00209041    -0.02600
Br605      Br  0.05830348  0.85593412  0.02890671    -0.01200
Br606      Br  0.03174819  0.89590860  0.02854155    -0.01200
Br607      Br  0.34790632  0.84699994  0.93498480    -0.01200
Br608      Br  0.31552782  0.88653080  0.93621966    -0.01200
C609        C  0.16420441  0.74331252  0.74999862    -0.02300
C610        C  0.18216563  0.73207621  0.72594384     0.07400
C611        C  0.23289421  0.73642111  0.70421693    -0.02400
C612        C  0.26769978  0.75140117  0.70739959    -0.02400
C613        C  0.25056823  0.76265520  0.73180451     0.07500
C614        C  0.19756088  0.75850527  0.75280680    -0.02600
Br615      Br  0.17054997  0.77310740  0.78678363    -0.01200
Br616      Br  0.09575414  0.73769344  0.78042601    -0.01200
Br617      Br  0.33649606  0.75648286  0.67677196    -0.01200
Br618      Br  0.25192907  0.72229445  0.66838887    -0.01200
C619        C  0.38451102  0.79236441  0.84335932    -0.02300
C620        C  0.39944505  0.80553670  0.82340283     0.07400
C621        C  0.44419516  0.81779758  0.83401926    -0.02400
C622        C  0.46849469  0.81774884  0.86544535    -0.02400
C623        C  0.45092973  0.80491310  0.88604639     0.07500
C624        C  0.41020393  0.79198196  0.87448353    -0.02600
Br625      Br  0.39155527  0.77323634  0.90063314    -0.01200
Br626      Br  0.33204498  0.77434411  0.82725395    -0.01200
Br627      Br  0.02205645  0.83592239  0.88046319    -0.01200
Br628      Br  0.97405971  0.83445628  0.80525147    -0.01200
C629        C  0.46188108  0.92468255  0.85285138    -0.02300
C630        C  0.43455508  0.93651472  0.83183335     0.07400
C631        C  0.38331171  0.94730474  0.84328700    -0.02400
C632        C  0.36023372  0.94616529  0.87476339    -0.02400
C633        C  0.38959497  0.93484920  0.89563318     0.07500
C634        C  0.44002682  0.92406375  0.88452274    -0.02600
Br635      Br  0.47850131  0.90801782  0.91281650    -0.01200
Br636      Br  0.02767442  0.90863753  0.83893649    -0.01200
Br637      Br  0.28930635  0.96044067  0.88986720    -0.01200
Br638      Br  0.34643444  0.96463270  0.81733104    -0.01200
C639        C  0.38801755  0.88229322  0.75841690    -0.02300
C640        C  0.43299368  0.88848260  0.73598785     0.07400
C641        C  0.46453708  0.87767222  0.71438801    -0.02400
C642        C  0.44926828  0.86081673  0.71436902    -0.02400
C643        C  0.40095618  0.85468503  0.73568332     0.07500
C644        C  0.37230766  0.86550864  0.75849721    -0.02600
Br645      Br  0.31533002  0.85748550  0.79199761    -0.01200
Br646      Br  0.35097212  0.89672400  0.79043290    -0.01200
Br647      Br  0.99488307  0.84652605  0.68468806    -0.01200
Br648      Br  0.02680643  0.88608035  0.68369648    -0.01200
C649        C  0.39659102  0.66846117  0.33803216    -0.02300
C650        C  0.39932177  0.68365838  0.32241910     0.07400
C651        C  0.40055250  0.69830147  0.34017058    -0.02400
C652        C  0.40282010  0.69774605  0.37335471    -0.02400
C653        C  0.39978862  0.68257688  0.38907622     0.07500
C654        C  0.39547106  0.66793827  0.37136960    -0.02600
Br655      Br  0.89015073  0.64720828  0.39282041    -0.01200
Br656      Br  0.39371176  0.64841679  0.31370735    -0.01200
Br657      Br  0.41116158  0.71787160  0.39723641    -0.01200
Br658      Br  0.39969245  0.71919021  0.31896674    -0.01200
C659        C  0.21836429  0.56316886  0.37608377    -0.02300
C660        C  0.15284716  0.56175029  0.38884285     0.07400
C661        C  0.09684282  0.56251544  0.36783758    -0.02400
C662        C  0.10617126  0.56211915  0.33475262    -0.02400
C663        C  0.17179645  0.56272433  0.32196326     0.07500
C664        C  0.22729228  0.56441723  0.34307201    -0.02600
Br665      Br  0.31642687  0.56952254  0.32751458    -0.01200
Br666      Br  0.29752395  0.56293747  0.40299510    -0.01200
Br667      Br  0.02787312  0.55996571  0.30768172    -0.01200
Br668      Br  0.00614382  0.56548754  0.38367120    -0.01200
C669        C  0.12540796  0.48653846  0.25940781    -0.02300
C670        C  0.07530364  0.48107835  0.23772187     0.07400
C671        C  0.05706411  0.49140904  0.21225634    -0.02400
C672        C  0.08812180  0.50683333  0.20859128    -0.02400
C673        C  0.13733596  0.51232332  0.23049891     0.07500
C674        C  0.15520644  0.50210883  0.25608375    -0.02600
Br675      Br  0.21761655  0.50977936  0.28813986    -0.01200
Br676      Br  0.15368336  0.47303126  0.29455799    -0.01200
Br677      Br  0.06548334  0.52001903  0.17218642    -0.01200
Br678      Br  0.99306475  0.48413328  0.18062981    -0.01200
C679        C  0.34091125  0.62742853  0.20869663    -0.02300
C680        C  0.30809376  0.63899891  0.22873014     0.07400
C681        C  0.25776593  0.63348108  0.24962247    -0.02400
C682        C  0.24043897  0.61673299  0.25028314    -0.02400
C683        C  0.27416837  0.60528763  0.23069741     0.07500
C684        C  0.32441190  0.61068640  0.21000325    -0.02600
Br685      Br  0.36841289  0.59516061  0.18213445    -0.01200
Br686      Br  0.40641454  0.63426270  0.17777193    -0.01200
Br687      Br  0.17170389  0.60931976  0.27895645    -0.01200
Br688      Br  0.21478870  0.64847901  0.27885498    -0.01200
C689        C  0.23251111  0.68309186  0.86472860    -0.02300
C690        C  0.17864705  0.68219357  0.88673545     0.07400
C691        C  0.11205391  0.68073490  0.87487956    -0.02400
C692        C  0.09995365  0.68030707  0.84193121    -0.02400
C693        C  0.15318988  0.68283212  0.82024317     0.07500
C694        C  0.21952160  0.68434264  0.83202460    -0.02600
Br695      Br  0.29334559  0.68935687  0.80400557    -0.01200
Br696      Br  0.32588411  0.68165001  0.87815053    -0.01200
Br697      Br  0.00972144  0.67541923  0.82709797    -0.01200
Br698      Br  0.03557421  0.68006364  0.90303031    -0.01200
C699        C  0.13630479  0.73953694  0.95374869    -0.02300
C700        C  0.13570446  0.73023678  0.98172967     0.07400
C701        C  0.09593237  0.73554943  0.00752023    -0.02400
C702        C  0.05872724  0.75030646  0.00566703    -0.02400
C703        C  0.06174400  0.75992443  0.97813583     0.07500
C704        C  0.09935859  0.75428300  0.95195348    -0.02600
Br705      Br  0.09789345  0.76652234  0.91297000    -0.01200
Br706      Br  0.18537085  0.73177102  0.91724482    -0.01200
Br707      Br  0.50571594  0.75761525  0.04132010    -0.01200
Br708      Br  0.09536914  0.72306674  0.04614781    -0.01200
C709        C  0.32948437  0.69885186  0.08306212    -0.02300
C710        C  0.28234018  0.68704602  0.07198451     0.07400
C711        C  0.26194604  0.67448300  0.09272034    -0.02400
C712        C  0.28573717  0.67419527  0.12417210    -0.02400
C713        C  0.33236673  0.68594067  0.13500929     0.07500
C714        C  0.35455050  0.69816799  0.11435520    -0.02600
Br715      Br  0.41726362  0.71441590  0.12967545    -0.01200
Br716      Br  0.35846308  0.71661065  0.05642077    -0.01200
Br717      Br  0.25375972  0.65762666  0.15266149    -0.01200
Br718      Br  0.20490748  0.65684170  0.07808993    -0.01200
C719        C  0.41719337  0.57346672  0.87501953    -0.02300
C720        C  0.44671557  0.56118593  0.89396520     0.07400
C721        C  0.48290741  0.54834066  0.87952691    -0.02400
C722        C  0.48611644  0.54720286  0.84626965    -0.02400
C723        C  0.45461028  0.55924663  0.82709013     0.07500
C724        C  0.42078432  0.57250639  0.84173615    -0.02600
Br725      Br  0.38116464  0.58971845  0.81650268    -0.01200
Br726      Br  0.37464765  0.59208278  0.89493515    -0.01200
Br727      Br  0.02984448  0.52834460  0.82736813    -0.01200
Br728      Br  0.52731390  0.53215755  0.90550333    -0.01200
C729        C  0.30165273  0.54241803  0.12458391    -0.02300
C730        C  0.26647548  0.55628502  0.13633032     0.07400
C731        C  0.26193309  0.57045923  0.11741637    -0.02400
C732        C  0.29448754  0.57094930  0.08777417    -0.02400
C733        C  0.33041705  0.55718248  0.07632317     0.07500
C734        C  0.33207846  0.54276972  0.09448075    -0.02600
Br735      Br  0.37430095  0.52329682  0.07766511    -0.01200
Br736      Br  0.30644731  0.52261719  0.14932606    -0.01200
Br737      Br  0.28927935  0.59050483  0.06252740    -0.01200
Br738      Br  0.21322310  0.58949169  0.13238383    -0.01200
C739        C  0.37291321  0.61846436  0.99725337    -0.02300
C740        C  0.33448279  0.60604845  0.98157898     0.07400
C741        C  0.27794141  0.61092344  0.96310695    -0.02400
C742        C  0.26118378  0.62765718  0.96008215    -0.02400
C743        C  0.29892234  0.63976676  0.97601660     0.07500
C744        C  0.35512956  0.63515666  0.99425316    -0.02600
Br745      Br  0.40543166  0.65178936  0.01688395    -0.01200
Br746      Br  0.44748635  0.61323805  0.02523972    -0.01200
Br747      Br  0.18704596  0.63418153  0.93296190    -0.01200
Br748      Br  0.22155283  0.59514641  0.94139560    -0.01200
C749        C  0.46635080  0.17010668  0.84644578    -0.02300
C750        C  0.43107103  0.18309528  0.83178624     0.07400
C751        C  0.40101257  0.19547133  0.85074701    -0.02400
C752        C  0.40341054  0.19442880  0.88389281    -0.02400
C753        C  0.43888262  0.18156320  0.89844059     0.07500
C754        C  0.47133759  0.16955901  0.87971349    -0.02600
Br755      Br  0.02217691  0.15226075  0.89973823    -0.01200
Br756      Br  0.00519467  0.15262465  0.82138418    -0.01200
Br757      Br  0.35907070  0.21086001  0.90952887    -0.01200
Br758      Br  0.35995926  0.21457889  0.83163884    -0.01200
C759        C  0.14230345  0.04550587  0.84620254    -0.02300
C760        C  0.16577487  0.05973377  0.83132059     0.07400
C761        C  0.18862802  0.07298408  0.85000674    -0.02400
C762        C  0.18536676  0.07230545  0.88332586    -0.02400
C763        C  0.16158919  0.05806782  0.89824615     0.07500
C764        C  0.14028451  0.04463189  0.87944835    -0.02600
Br765      Br  0.11118548  0.02455425  0.89905059    -0.01200
Br766      Br  0.11570768  0.02685389  0.82094459    -0.01200
Br767      Br  0.21030730  0.09121651  0.90828320    -0.01200
Br768      Br  0.22714132  0.09182524  0.82995432    -0.01200
C769        C  0.12375961  0.98390817  0.72563403    -0.02300
C770        C  0.05589817  0.98226556  0.73554461     0.07400
C771        C  0.01843323  0.99650732  0.74282551    -0.02400
C772        C  0.04913943  0.01208045  0.74189412    -0.02400
C773        C  0.11856940  0.01363596  0.73394166     0.07500
C774        C  0.15508612  0.99936873  0.72540245    -0.02600
Br775      Br  0.24790503  0.00065060  0.71185834    -0.01200
Br776      Br  0.17407975  0.96513531  0.70995857    -0.01200
Br777      Br  0.99446954  0.03094989  0.75328483    -0.01200
Br778      Br  0.42525866  0.99483308  0.75542828    -0.01200
C779        C  0.34335580  0.10847091  0.73394270    -0.02300
C780        C  0.27738519  0.10471262  0.74376614     0.07400
C781        C  0.23299283  0.11777772  0.75215098    -0.02400
C782        C  0.25437283  0.13421657  0.75072119    -0.02400
C783        C  0.31986822  0.13800975  0.73997533     0.07500
C784        C  0.36285045  0.12490944  0.73010452    -0.02600
Br785      Br  0.44585706  0.12886163  0.70741390    -0.01200
Br786      Br  0.40839071  0.09131212  0.72455013    -0.01200
Br787      Br  0.19130318  0.15124150  0.76334949    -0.01200
Br788      Br  0.14246329  0.11359517  0.76712100    -0.01200
C789        C  0.37566259  0.06938256  0.38029525    -0.02300
C790        C  0.41893580  0.06076479  0.40103872     0.07400
C791        C  0.47308227  0.05162266  0.38871107    -0.02400
C792        C  0.48301348  0.05067111  0.35578367    -0.02400
C793        C  0.44084862  0.05968590  0.33472483     0.07500
C794        C  0.38733854  0.06917930  0.34740630    -0.02600
Br795      Br  0.33075347  0.08257958  0.32050759    -0.01200
Br796      Br  0.30059352  0.08185356  0.39700359    -0.01200
Br797      Br  0.05182919  0.03573729  0.34039628    -0.01200
Br798      Br  0.53151794  0.03946838  0.41696885    -0.01200
C799        C  0.32216652  0.07073241  0.60370386    -0.02300
C800        C  0.31583686  0.05644847  0.58490136     0.07400
C801        C  0.27918689  0.04300395  0.59673584    -0.02400
C802        C  0.24977470  0.04383289  0.62702062    -0.02400
C803        C  0.25606193  0.05808733  0.64565670     0.07500
C804        C  0.29118682  0.07162928  0.63363189    -0.02600
Br805      Br  0.29449887  0.09170730  0.65769697    -0.01200
Br806      Br  0.37127603  0.08939416  0.58830033    -0.01200
Br807      Br  0.19932748  0.02557075  0.64291857    -0.01200
Br808      Br  0.27170010  0.02304353  0.57221141    -0.01200
C809        C  0.11957376  0.17693628  0.35254493    -0.02300
C810        C  0.16280501  0.18553547  0.33220912     0.07400
C811        C  0.21564422  0.19490141  0.34494916    -0.02400
C812        C  0.22579660  0.19558898  0.37790780    -0.02400
C813        C  0.18500721  0.18617743  0.39844500     0.07500
C814        C  0.13100605  0.17704313  0.38546485    -0.02600
Br815      Br  0.07280060  0.16417908  0.41199036    -0.01200
Br816      Br  0.04510766  0.16458163  0.33520205    -0.01200
Br817      Br  0.29230007  0.21073717  0.39429550    -0.01200
Br818      Br  0.27179581  0.20763350  0.31720973    -0.01200
C819        C  0.09920258  0.23469454  0.47348003    -0.02300
C820        C  0.16171148  0.23263878  0.48921280     0.07400
C821        C  0.19313290  0.24623643  0.50342071    -0.02400
C822        C  0.16278700  0.26185594  0.50142540    -0.02400
C823        C  0.10022041  0.26390120  0.48556903     0.07500
C824        C  0.06753174  0.25014094  0.47261121    -0.02600
Br825      Br  0.97937998  0.25227816  0.45351835    -0.01200
Br826      Br  0.05830888  0.21656693  0.45110647    -0.01200
Br827      Br  0.20484354  0.28014983  0.52283004    -0.01200
Br828      Br  0.27574355  0.24330646  0.52709705    -0.01200
C829        C  0.38292226  0.18700113  0.62171121    -0.02300
C830        C  0.33762517  0.18470635  0.64669925     0.07400
C831        C  0.26835134  0.18256126  0.63985152    -0.02400
C832        C  0.24410808  0.18387919  0.60857540    -0.02400
C833        C  0.28954957  0.18589836  0.58318065     0.07500
C834        C  0.35986916  0.18672607  0.59012708    -0.02600
Br835      Br  0.42753856  0.18635507  0.55726224    -0.01200
Br836      Br  0.47637156  0.19169484  0.63070613    -0.01200
Br837      Br  0.14777184  0.18350327  0.60176229    -0.01200
Br838      Br  0.20583649  0.17692030  0.67305614    -0.01200
C839        C  0.24878016  0.12804762  0.51090903    -0.02300
C840        C  0.28441904  0.13884580  0.49089880     0.07400
C841        C  0.33503017  0.13251919  0.47085658    -0.02400
C842        C  0.34995717  0.11565077  0.47091561    -0.02400
C843        C  0.31296769  0.10489400  0.49015596     0.07500
C844        C  0.26222806  0.11110381  0.51002880    -0.02600
Br845      Br  0.21407524  0.09649801  0.53760956    -0.01200
Br846      Br  0.18482432  0.13632145  0.54159397    -0.01200
Br847      Br  0.42092020  0.10726972  0.44405790    -0.01200
Br848      Br  0.38244457  0.14664279  0.44211671    -0.01200
C849        C  0.34632188  0.31756465  0.09344670    -0.02300
C850        C  0.29090875  0.30919993  0.07956928     0.07400
C851        C  0.24319615  0.30159999  0.09995936    -0.02400
C852        C  0.25268851  0.30188021  0.13300194    -0.02400
C853        C  0.30853725  0.30985383  0.14625409     0.07500
C854        C  0.35499789  0.31777340  0.12652698    -0.02600
Br855      Br  0.43084802  0.32921468  0.14505644    -0.01200
Br856      Br  0.41063756  0.32947198  0.06826051    -0.01200
Br857      Br  0.19185641  0.29013352  0.16029350    -0.01200
Br858      Br  0.16459982  0.29011194  0.08422852    -0.01200
C859        C  0.34458286  0.23420577  0.01154604    -0.02300
C860        C  0.39975731  0.22977122  0.99212175     0.07400
C861        C  0.42419626  0.24114222  0.97001273    -0.02400
C862        C  0.39247974  0.25651662  0.96659145    -0.02400
C863        C  0.33703622  0.26102249  0.98596427     0.07500
C864        C  0.31404553  0.24977137  0.00877754    -0.02600
Br865      Br  0.24364481  0.25573575  0.03818767    -0.01200
Br866      Br  0.31192707  0.21933767  0.04346362    -0.01200
Br867      Br  0.42483226  0.27085447  0.93386268    -0.01200
Br868      Br  0.99950857  0.23561187  0.94287713    -0.01200
C869        C  0.98871776  0.43742240  0.12353214    -0.02300
C870        C  0.03904618  0.43135684  0.14498369     0.07400
C871        C  0.09825380  0.42423372  0.13198958    -0.02400
C872        C  0.10946889  0.42449669  0.09903727    -0.02400
C873        C  0.06145159  0.43155044  0.07831296     0.07500
C874        C  0.00074628  0.43770122  0.09063704    -0.02600
Br875      Br  0.43535771  0.44765044  0.06243974    -0.01200
Br876      Br  0.40142216  0.44538877  0.13739469    -0.01200
Br877      Br  0.19071182  0.41460369  0.08217951    -0.01200
Br878      Br  0.16368983  0.41295296  0.15823096    -0.01200
C879        C  0.48821468  0.48564214  0.96042832    -0.02300
C880        C  0.03629336  0.48102294  0.98361545     0.07400
C881        C  0.05049370  0.49194647  0.00872735    -0.02400
C882        C  0.51848165  0.50742455  0.01026499    -0.02400
C883        C  0.46930964  0.51201645  0.98734858     0.07500
C884        C  0.45360361  0.50078744  0.96273399    -0.02600
Br885      Br  0.38640286  0.50603921  0.93103540    -0.01200
Br886      Br  0.47229028  0.47165615  0.92404829    -0.01200
Br887      Br  0.04139159  0.52184243  0.04515666    -0.01200
Br888      Br  0.11072655  0.48539209  0.04254234    -0.01200
C889        C  0.14033848  0.37700587  0.01042713    -0.02300
C890        C  0.17347306  0.38810311  0.99041338     0.07400
C891        C  0.22041894  0.38229836  0.96819645    -0.02400
C892        C  0.23341325  0.36540782  0.96551367    -0.02400
C893        C  0.20202045  0.35427131  0.98623838     0.07500
C894        C  0.15575789  0.36016130  0.00890370    -0.02600
Br895      Br  0.11601477  0.34543870  0.03905742    -0.01200
Br896      Br  0.07421341  0.38491655  0.04026787    -0.01200
Br897      Br  0.29081331  0.35759467  0.93174169    -0.01200
Br898      Br  0.26441782  0.39747149  0.94027920    -0.01200
C899        C  0.04743528  0.29651871  0.62539715    -0.02300
C900        C  0.08932179  0.30791107  0.64068189     0.07400
C901        C  0.12752249  0.31892767  0.62252729    -0.02400
C902        C  0.11705978  0.31999072  0.58964695    -0.02400
C903        C  0.07150207  0.30924825  0.57454345     0.07500
C904        C  0.03927759  0.29697427  0.59242421    -0.02600
Br905      Br  0.48861924  0.27967785  0.57187398    -0.01200
Br906      Br  0.00751453  0.27905431  0.64916152    -0.01200
Br907      Br  0.16403789  0.33650487  0.56595336    -0.01200
Br908      Br  0.19683659  0.33202997  0.64225965    -0.01200
C909        C  0.96948033  0.25886823  0.72865241    -0.02300
C910        C  0.03914948  0.26048838  0.73620856     0.07400
C911        C  0.07621371  0.24631087  0.74463483    -0.02400
C912        C  0.04462282  0.23086589  0.74534906    -0.02400
C913        C  0.47590973  0.22922269  0.73660373     0.07500
C914        C  0.43907914  0.24328683  0.72771205    -0.02600
Br915      Br  0.34795698  0.24119201  0.71173839    -0.01200
Br916      Br  0.91316625  0.27770921  0.71928592    -0.01200
Br917      Br  0.09590800  0.21215503  0.76017470    -0.01200
Br918      Br  0.16944894  0.24793481  0.75775807    -0.01200
C919        C  0.24467072  0.30289426  0.83525253    -0.02300
C920        C  0.17578741  0.30569397  0.82687164     0.07400
C921        C  0.12963557  0.30974743  0.85132875    -0.02400
C922        C  0.15196034  0.31102321  0.88295771    -0.02400
C923        C  0.21959023  0.30743103  0.89126534     0.07500
C924        C  0.26601250  0.30371829  0.86713820    -0.02600
Br925      Br  0.35918062  0.29932081  0.87755919    -0.01200
Br926      Br  0.31346552  0.29795840  0.80402738    -0.01200
Br927      Br  0.08905934  0.31884701  0.91468006    -0.01200
Br928      Br  0.03447782  0.31287847  0.84289473    -0.01200
C929        C  0.35950491  0.42357897  0.63147626    -0.02300
C930        C  0.31048978  0.43329668  0.64714306     0.07400
C931        C  0.26659931  0.44331249  0.62858377    -0.02400
C932        C  0.27022251  0.44302861  0.59526555    -0.02400
C933        C  0.32009782  0.43365673  0.58003786     0.07500
C934        C  0.36544789  0.42418354  0.59825308    -0.02600
Br935      Br  0.43587354  0.41176261  0.57753557    -0.01200
Br936      Br  0.41709189  0.40867573  0.65465888    -0.01200
Br937      Br  0.20898002  0.45623861  0.57030822    -0.01200
Br938      Br  0.20390291  0.45861454  0.64788152    -0.01200
C939        C  0.44797528  0.49634116  0.72348478    -0.02300
C940        C  0.41898811  0.50974184  0.73965852     0.07400
C941        C  0.36023080  0.50728061  0.75791118    -0.02400
C942        C  0.32869922  0.49184771  0.75850294    -0.02400
C943        C  0.35636248  0.47858784  0.74146048     0.07500
C944        C  0.41634371  0.48090440  0.72399785    -0.02600
Br945      Br  0.45327892  0.46323443  0.69870176    -0.01200
Br946      Br  0.53008714  0.49912391  0.69992518    -0.01200
Br947      Br  0.24879807  0.48878049  0.78357177    -0.01200
Br948      Br  0.32502375  0.52478963  0.78411384    -0.01200
C949        C  0.22832935  0.44594625  0.88601950    -0.02300
C950        C  0.17785923  0.43474335  0.89558978     0.07400
C951        C  0.15974006  0.42188838  0.87460818    -0.02400
C952        C  0.19025057  0.42056116  0.84456751    -0.02400
C953        C  0.23993421  0.43179712  0.83517104     0.07500
C954        C  0.25983275  0.44424460  0.85626739    -0.02600
Br955      Br  0.32951992  0.45922717  0.84380983    -0.01200
Br956      Br  0.25175648  0.46456159  0.91226495    -0.01200
Br957      Br  0.16444131  0.40310657  0.81607015    -0.01200
Br958      Br  0.09491125  0.40556792  0.88682152    -0.01200
C959        C  0.17629455  0.38024350  0.71535277    -0.02300
C960        C  0.22619514  0.38539812  0.73701295     0.07400
C961        C  0.26020813  0.37356946  0.75573324    -0.02400
C962        C  0.24471628  0.35681459  0.75259271    -0.02400
C963        C  0.19344032  0.35172611  0.73162830     0.07500
C964        C  0.15859138  0.36359030  0.71334662    -0.02600
Br965      Br  0.08567641  0.35731369  0.68534786    -0.01200
Br966      Br  0.13443050  0.39574349  0.68684757    -0.01200
Br967      Br  0.29023292  0.34106950  0.77920761    -0.01200
Br968      Br  0.32518339  0.38016290  0.78757586    -0.01200
C969        C  0.09308185  0.79924859  0.11918386    -0.02300
C970        C  0.05234070  0.80932649  0.13913173     0.07400
C971        C  0.00083526  0.81901793  0.12516722    -0.02400
C972        C  0.49213636  0.81902667  0.09201488    -0.02400
C973        C  0.03549010  0.80968209  0.07244089     0.07500
C974        C  0.08612286  0.79993526  0.08611261    -0.02600
Br975      Br  0.14420180  0.78674755  0.05940887    -0.01200
Br976      Br  0.15469724  0.78297943  0.13617327    -0.01200
Br977      Br  0.42201019  0.83239970  0.07322985    -0.01200
Br978      Br  0.44095528  0.83237265  0.15060855    -0.01200
C979        C  0.45453827  0.76061220  0.21518678    -0.02300
C980        C  0.01816429  0.76265470  0.23006765     0.07400
C981        C  0.04930430  0.74898767  0.24430939    -0.02400
C982        C  0.51679488  0.73362904  0.24445246    -0.02400
C983        C  0.45274428  0.73158795  0.22985290     0.07500
C984        C  0.42180133  0.74526290  0.21535959    -0.02600
Br985      Br  0.33566938  0.74299327  0.19439294    -0.01200
Br986      Br  0.41376602  0.77858236  0.19229484    -0.01200
Br987      Br  0.55948362  0.71569322  0.26674302    -0.01200
Br988      Br  0.13569619  0.75132891  0.26483894    -0.01200
C989        C  0.34129932  0.94815104  0.13574488    -0.02300
C990        C  0.32732196  0.93335897  0.15140176     0.07400
C991        C  0.32143366  0.91874465  0.13370542    -0.02400
C992        C  0.32734677  0.91899596  0.10045202    -0.02400
C993        C  0.33999465  0.93384871  0.08473902     0.07500
C994        C  0.34937758  0.94833014  0.10264233    -0.02600
Br995      Br  0.37164766  0.96859092  0.08186996    -0.01200
Br996      Br  0.34710711  0.96833842  0.15953318    -0.01200
Br997      Br  0.32080144  0.89888417  0.07647350    -0.01200
Br998      Br  0.30268988  0.89849243  0.15504827    -0.01200
C999        C  0.42491558  0.98155523  0.23631359    -0.02300
C1000       C  0.35866297  0.97957097  0.24823948     0.07400
C1001       C  0.32449775  0.99331741  0.26084153    -0.02400
C1002       C  0.35493773  0.00886774  0.26051200    -0.02400
C1003       C  0.41869783  0.01104642  0.24630118     0.07500
C1004       C  0.45395632  0.99727858  0.23467843    -0.02600
Br1005     Br  0.54024658  0.00004804  0.21456375    -0.01200
Br1006     Br  0.47633436  0.96299421  0.22084461    -0.01200
Br1007     Br  0.31016462  0.02703321  0.28140038    -0.01200
Br1008     Br  0.23716839  0.99087078  0.28020980    -0.01200
C1009       C  0.20592285  0.86029990  0.25737892    -0.02300
C1010       C  0.16113292  0.85523349  0.23339501     0.07400
C1011       C  0.13509909  0.86690322  0.21201263    -0.02400
C1012       C  0.15459540  0.88349078  0.21415644    -0.02400
C1013       C  0.20062055  0.88858035  0.23785304     0.07500
C1014       C  0.22520289  0.87685585  0.25982965    -0.02600
Br1015     Br  0.28210124  0.88335671  0.29499648    -0.01200
Br1016     Br  0.23845032  0.84462153  0.28801762    -0.01200
Br1017     Br  0.11969543  0.89889338  0.18358246    -0.01200
Br1018     Br  0.07484430  0.85997974  0.17869923    -0.01200
C1019       C  0.29827875  0.82369610  0.59045088    -0.02300
C1020       C  0.27011392  0.80971614  0.57580436     0.07400
C1021       C  0.24249141  0.79723537  0.59475769    -0.02400
C1022       C  0.24323487  0.79874670  0.62790299    -0.02400
C1023       C  0.27580073  0.81206510  0.64241260     0.07500
C1024       C  0.30138355  0.82477377  0.62370235    -0.02600
Br1025     Br  0.33708516  0.84406280  0.64394440    -0.01200
Br1026     Br  0.33041053  0.84166975  0.56530794    -0.01200
Br1027     Br  0.19796771  0.78282956  0.65355285    -0.01200
Br1028     Br  0.20829770  0.77734238  0.57570476    -0.01200
C1029       C  0.30580502  0.73225720  0.46731549    -0.02300
C1030       C  0.36749936  0.72914406  0.48331089     0.07400
C1031       C  0.40015736  0.74209259  0.49926363    -0.02400
C1032       C  0.37133772  0.75792101  0.49946984    -0.02400
C1033       C  0.31100910  0.76115229  0.48255174     0.07500
C1034       C  0.27867606  0.74825647  0.46632773    -0.02600
Br1035     Br  0.19958187  0.75265125  0.44086454    -0.01200
Br1036     Br  0.25866049  0.71483352  0.44548165    -0.01200
Br1037     Br  0.41303789  0.77491022  0.52475931    -0.01200
Br1038     Br  0.48281290  0.73807287  0.52234153    -0.01200
C1039       C  0.14758662  0.81868117  0.37875378    -0.02300
C1040       C  0.19959272  0.80801291  0.38852354     0.07400
C1041       C  0.22810552  0.79699132  0.36677109    -0.02400
C1042       C  0.20382066  0.79629440  0.33536030    -0.02400
C1043       C  0.15062626  0.80692671  0.32518238     0.07500
C1044       C  0.12349787  0.81830617  0.34732571    -0.02600
Br1045     Br  0.05553504  0.83421015  0.33531785    -0.01200
Br1046     Br  0.11027913  0.83425076  0.40863131    -0.01200
Br1047     Br  0.24375013  0.78003332  0.30763622    -0.01200
Br1048     Br  0.29887784  0.78230849  0.38076401    -0.01200
C1049       C  0.09070350  0.92527139  0.59911004    -0.02300
C1050       C  0.04471750  0.93309982  0.57851473     0.07400
C1051       C  0.99022938  0.94200753  0.59110367    -0.02400
C1052       C  0.48155415  0.94312710  0.62413961    -0.02400
C1053       C  0.02669640  0.93489008  0.64515313     0.07500
C1054       C  0.08250991  0.92629136  0.63216935    -0.02600
Br1055     Br  0.15007095  0.91603042  0.65869167    -0.01200
Br1056     Br  0.16493990  0.91266638  0.58187581    -0.01200
Br1057     Br  0.41060108  0.95749946  0.63949124    -0.01200
Br1058     Br  0.42992261  0.95371777  0.56299530    -0.01200
C1059       C  0.43941185  0.00216746  0.46500608    -0.02300
C1060       C  0.44752582  0.01195101  0.49238305     0.07400
C1061       C  0.49139255  0.00663645  0.51675738    -0.02400
C1062       C  0.02718949  0.99175616  0.51371285    -0.02400
C1063       C  0.01857783  0.98189751  0.48648459     0.07500
C1064       C  0.47466451  0.98720236  0.46211507    -0.02600
Br1065     Br  0.46489536  0.97431541  0.42383468    -0.01200
Br1066     Br  0.38294769  0.00955186  0.43049323    -0.01200
Br1067     Br  0.08534344  0.98461250  0.54778897    -0.01200
Br1068     Br  0.49996596  0.01931303  0.55535046    -0.01200
C1069       C  0.12913506  0.92549590  0.37250391    -0.02300
C1070       C  0.15071251  0.93745035  0.39470478     0.07400
C1071       C  0.20137646  0.94870450  0.38561118    -0.02400
C1072       C  0.23179240  0.94747444  0.35557704    -0.02400
C1073       C  0.20985570  0.93562806  0.33363824     0.07500
C1074       C  0.15753799  0.92488811  0.34196383    -0.02600
Br1075     Br  0.12521356  0.90907906  0.31142748    -0.01200
Br1076     Br  0.06350294  0.90918885  0.38382722    -0.01200
Br1077     Br  0.30269847  0.96232837  0.34398619    -0.01200
Br1078     Br  0.22725164  0.96664962  0.41313384    -0.01200
C1079       C  0.19911126  0.88317290  0.46552995    -0.02300
C1080       C  0.15125484  0.88875323  0.48753185     0.07400
C1081       C  0.11829836  0.87748924  0.50722350    -0.02400
C1082       C  0.13501521  0.86071733  0.50576941    -0.02400
C1083       C  0.18347307  0.85504552  0.48384164     0.07500
C1084       C  0.21496277  0.86638344  0.46346995    -0.02600
Br1085     Br  0.27691783  0.85909018  0.43107223    -0.01200
Br1086     Br  0.23927114  0.89846997  0.43655162    -0.01200
Br1087     Br  0.09347117  0.84584970  0.53513448    -0.01200
Br1088     Br  0.05030357  0.88506229  0.53649731    -0.01200
O1089       O  0.56648270  0.93333405  0.43558236    -0.72200
O1090       O  0.51759468  0.92992073  0.52302964    -0.72500
O1091       O  0.50915344  0.95332643  0.47898742    -0.72300
O1092       O  0.57075701  0.90964860  0.47954610    -0.72300
O1093       O  0.67032496  0.91756005  0.49456599    -0.72300
O1094       O  0.60897128  0.96206579  0.49134174    -0.72300
O1095       O  0.61676944  0.93894159  0.53591415    -0.72300
O1096       O  0.66650433  0.94071532  0.45020326    -0.72400
V1097       V  0.54290149  0.93173726  0.47948182     1.35200
V1098       V  0.63866936  0.93969470  0.49269640     1.35200
C1099       C  0.62613459  0.93728732  0.42810372     0.77000
C1100       C  0.55982546  0.93392361  0.54432607     0.77000
C1101       C  0.54750039  0.96513850  0.48528352     0.76900
C1102       C  0.63018520  0.90606941  0.48745871     0.76900
O1103       O  0.77518863  0.81174415  0.43278427    -0.72200
O1104       O  0.80946296  0.81190241  0.52207384    -0.72500
O1105       O  0.82314453  0.78979300  0.47508284    -0.72300
O1106       O  0.76512413  0.83380855  0.47996130    -0.72300
O1107       O  0.66162746  0.82603478  0.48542519    -0.72300
O1108       O  0.72241864  0.78148169  0.48619863    -0.72300
O1109       O  0.70521065  0.80518147  0.52967714    -0.72300
O1110       O  0.67488155  0.80240323  0.44185272    -0.72400
V1111       V  0.79135660  0.81161639  0.47754870     1.35200
V1112       V  0.69306750  0.80387547  0.48557420     1.35200
C1113       C  0.71806910  0.80725673  0.42239070     0.77000
C1114       C  0.76187929  0.80887294  0.54104537     0.77000
C1115       C  0.78393859  0.77813971  0.48105789     0.76900
C1116       C  0.70387026  0.83754788  0.48304547     0.76900
O1117       O  0.79328205  0.92982453  0.29366470    -0.72200
O1118       O  0.84995151  0.92909935  0.20690089    -0.72500
O1119       O  0.85901482  0.95061619  0.25529331    -0.72300
O1120       O  0.78760283  0.90811769  0.24555149    -0.72300
O1121       O  0.68943101  0.91817801  0.23387705    -0.72300
O1122       O  0.76508747  0.96128338  0.23874514    -0.72300
O1123       O  0.75148595  0.93852010  0.19324408    -0.72300
O1124       O  0.69921917  0.94127377  0.27897672    -0.72400
V1125       V  0.82061074  0.92963151  0.25012184     1.35200
V1126       V  0.72816642  0.93964001  0.23650588     1.35200
C1127       C  0.73578635  0.93561565  0.30081452     0.77000
C1128       C  0.80933405  0.93363057  0.18533328     0.77000
C1129       C  0.82582541  0.96318760  0.24760065     0.76900
C1130       C  0.72646232  0.90571686  0.23899122     0.76900
O1131       O  0.56996508  0.81222618  0.28265172    -0.72200
O1132       O  0.52243924  0.81337982  0.19456893    -0.72500
O1133       O  0.51277541  0.79131701  0.24073897    -0.72300
O1134       O  0.57595508  0.83493537  0.23662105    -0.72300
O1135       O  0.67763551  0.82610397  0.22797858    -0.72300
O1136       O  0.61001155  0.78211626  0.22541481    -0.72300
O1137       O  0.62485443  0.80643112  0.18359007    -0.72300
O1138       O  0.66670616  0.80199462  0.26993797    -0.72400
V1139       V  0.54715423  0.81283989  0.23850254     1.35200
V1140       V  0.64283706  0.80427754  0.22699854     1.35200
C1141       C  0.62746952  0.80692002  0.29130013     0.77000
C1142       C  0.56649006  0.80984841  0.17390611     0.77000
C1143       C  0.54886163  0.77932149  0.23229351     0.76900
C1144       C  0.63741555  0.83802841  0.23234272     0.76900
O1145       O  0.81582131  0.42731986  0.79089981    -0.72200
O1146       O  0.85064384  0.42963693  0.70139932    -0.72500
O1147       O  0.86455044  0.45010805  0.75075445    -0.72300
O1148       O  0.80715113  0.40650762  0.74122871    -0.72300
O1149       O  0.70304454  0.41453671  0.73836421    -0.72300
O1150       O  0.76520227  0.45898904  0.73741893    -0.72300
O1151       O  0.74524541  0.43526359  0.69408207    -0.72300
O1152       O  0.71758732  0.43826310  0.78193047    -0.72400
V1153       V  0.83273490  0.42854345  0.74604198     1.35200
V1154       V  0.73464578  0.43666254  0.73819898     1.35200
C1155       C  0.75958947  0.43252860  0.80137654     0.77000
C1156       C  0.80239011  0.43265408  0.68234106     0.77000
C1157       C  0.82674097  0.46195432  0.74357257     0.76900
C1158       C  0.74580483  0.40289902  0.73898937     0.76900
O1159       O  0.59856910  0.31141076  0.78315305    -0.72200
O1160       O  0.55358648  0.31010284  0.69488813    -0.72500
O1161       O  0.53892334  0.28947006  0.74411742    -0.72300
O1162       O  0.60759453  0.33199849  0.73479643    -0.72300
O1163       O  0.70890782  0.32220455  0.73009955    -0.72300
O1164       O  0.63277748  0.27902524  0.72756117    -0.72300
O1165       O  0.65689247  0.30270024  0.68532602    -0.72300
O1166       O  0.68972347  0.29811358  0.77245404    -0.72400
V1167       V  0.57617432  0.31049371  0.73904932     1.35200
V1168       V  0.67040503  0.30064974  0.72911850     1.35200
C1169       C  0.65289709  0.30497229  0.79291772     0.77000
C1170       C  0.59989426  0.30691230  0.67509517     0.77000
C1171       C  0.57202982  0.27695231  0.73600315     0.76900
C1172       C  0.66961083  0.33454505  0.73191474     0.76900
O1173       O  0.58996309  0.43181682  0.93531892    -0.72200
O1174       O  0.53651418  0.42885670  0.02236524    -0.72500
O1175       O  0.52841332  0.45210690  0.97753966    -0.72300
O1176       O  0.59304448  0.40864074  0.98013786    -0.72300
O1177       O  0.69069442  0.41703722  0.99689261    -0.72300
O1178       O  0.62736984  0.46131197  0.98987174    -0.72300
O1179       O  0.63335547  0.43887902  0.03616903    -0.72300
O1180       O  0.68901353  0.43938980  0.95103556    -0.72400
V1181       V  0.56377555  0.43059150  0.97903397     1.35200
V1182       V  0.65812941  0.43904998  0.99316240     1.35200
C1183       C  0.65036199  0.43550288  0.92853647     0.77000
C1184       C  0.57718723  0.43318813  0.04413103     0.77000
C1185       C  0.56586649  0.46417011  0.98335812     0.76900
C1186       C  0.65181367  0.40534472  0.98943750     0.76900
O1187       O  0.68098493  0.32518675  0.98709381    -0.72200
O1188       O  0.74629545  0.28099316  0.99001848    -0.72500
O1189       O  0.72545508  0.30525075  0.03254491    -0.72300
O1190       O  0.69826349  0.30089136  0.94481382    -0.72300
O1191       O  0.79503491  0.31202762  0.93598006    -0.72300
O1192       O  0.82993360  0.31107845  0.02523430    -0.72300
O1193       O  0.84525156  0.28977495  0.97767187    -0.72300
O1194       O  0.78446757  0.33338007  0.98401436    -0.72400
V1195       V  0.71461037  0.30318397  0.98845854     1.35200
V1196       V  0.81194242  0.31137303  0.98075061     1.35200
C1197       C  0.72277591  0.33685550  0.98574587     0.77000
C1198       C  0.80776214  0.27789289  0.98419018     0.77000
C1199       C  0.78205803  0.30850274  0.04434275     0.76900
C1200       C  0.73935786  0.30670747  0.92531104     0.76900
O1201       O  0.70822307  0.18126495  0.54083402    -0.72200
O1202       O  0.65565892  0.18404908  0.45384744    -0.72500
O1203       O  0.70489754  0.16056409  0.49177331    -0.72300
O1204       O  0.65437521  0.20471173  0.50300381    -0.72300
O1205       O  0.74950024  0.21235580  0.48288906    -0.72300
O1206       O  0.80946352  0.16776088  0.48830126    -0.72300
O1207       O  0.76078448  0.18714014  0.44224694    -0.72300
O1208       O  0.80134335  0.19312420  0.52873416    -0.72400
V1209       V  0.68229293  0.18279714  0.49727993     1.35200
V1210       V  0.77883302  0.19000328  0.48574476     1.35200
C1211       C  0.76482169  0.18689562  0.54967237     0.77000
C1212       C  0.70069899  0.18570134  0.43294176     0.77000
C1213       C  0.76599025  0.15646432  0.49017007     0.76900
C1214       C  0.69059912  0.21598764  0.49225691     0.76900
O1215       O  0.89832634  0.06076311  0.54387611    -0.72200
O1216       O  0.94598186  0.06367237  0.45640343    -0.72500
O1217       O  0.89278108  0.08403967  0.49945951    -0.72300
O1218       O  0.95545558  0.04050061  0.50077742    -0.72300
O1219       O  0.85639753  0.03157809  0.48755570    -0.72300
O1220       O  0.79261243  0.07593440  0.48585857    -0.72300
O1221       O  0.84610198  0.05506731  0.44363922    -0.72300
O1222       O  0.79904790  0.05234180  0.52981999    -0.72400
V1223       V  0.92116705  0.06203897  0.49994833     1.35200
V1224       V  0.82544270  0.05385912  0.48706604     1.35200
C1225       C  0.83946306  0.05634461  0.55157981     0.77000
C1226       C  0.90329000  0.05992147  0.43516481     0.77000
C1227       C  0.83305713  0.08752262  0.49192341     0.76900
C1228       C  0.91784366  0.02863049  0.49388299     0.76900
O1229       O  0.67774954  0.06344369  0.68804978    -0.72200
O1230       O  0.63462525  0.06438058  0.77664191    -0.72500
O1231       O  0.69107017  0.08509480  0.73524665    -0.72300
O1232       O  0.61789115  0.04277671  0.72854490    -0.72300
O1233       O  0.71396751  0.03194372  0.74094608    -0.72300
O1234       O  0.78919088  0.07504067  0.74650472    -0.72300
O1235       O  0.73348056  0.05411802  0.78697477    -0.72300
O1236       O  0.77471287  0.05257293  0.69989565    -0.72400
V1237       V  0.65714051  0.06368817  0.73237974     1.35200
V1238       V  0.75098670  0.05358678  0.74320841     1.35200
C1239       C  0.73465676  0.05800780  0.67918861     0.77000
C1240       C  0.67789986  0.05950636  0.79681405     0.77000
C1241       C  0.75187486  0.08753384  0.74208364     0.76900
C1242       C  0.65190041  0.03008499  0.73433565     0.76900
O1243       O  0.91505689  0.17806320  0.68926137    -0.72200
O1244       O  0.96463806  0.18024032  0.77698821    -0.72500
O1245       O  0.90762459  0.15789131  0.73894182    -0.72300
O1246       O  0.97589356  0.20039833  0.72702861    -0.72300
O1247       O  0.88368539  0.21064057  0.74620296    -0.72300
O1248       O  0.80678677  0.16776021  0.74104901    -0.72300
O1249       O  0.86049155  0.18636067  0.78718922    -0.72300
O1250       O  0.82584108  0.19232374  0.70055345    -0.72400
V1251       V  0.93945900  0.17933499  0.73315262     1.35200
V1252       V  0.84574352  0.18914089  0.74360978     1.35200
C1253       C  0.86116442  0.18509606  0.68009442     0.77000
C1254       C  0.91890555  0.18315904  0.79719060     0.77000
C1255       C  0.84533872  0.15528168  0.73993385     0.76900
C1256       C  0.94345998  0.21279550  0.73651777     0.76900
O1257       O  0.91563885  0.56220249  0.03668673    -0.72200
O1258       O  0.97226579  0.56334333  0.94979730    -0.72500
O1259       O  0.91563565  0.58469473  0.99006588    -0.72300
O1260       O  0.97617004  0.54089669  0.99591936    -0.72300
O1261       O  0.87966139  0.53212829  0.97913275    -0.72300
O1262       O  0.81523733  0.57658318  0.97845816    -0.72300
O1263       O  0.87117204  0.55621785  0.93571652    -0.72300
O1264       O  0.81935249  0.55241876  0.02126707    -0.72400
V1265       V  0.94304061  0.56258538  0.99299264     1.35200
V1266       V  0.84829172  0.55445949  0.97892094     1.35200
C1267       C  0.85702115  0.55715730  0.04351200     0.77000
C1268       C  0.92990916  0.56030415  0.92799135     0.77000
C1269       C  0.85553836  0.58835968  0.98354761     0.76900
C1270       C  0.93983828  0.52898449  0.98768522     0.76900
O1271       O  0.69928350  0.68276951  0.03043985    -0.72200
O1272       O  0.65377918  0.67790586  0.94258905    -0.72500
O1273       O  0.71340763  0.65921184  0.98644978    -0.72300
O1274       O  0.63499293  0.70137967  0.98698768    -0.72300
O1275       O  0.73233509  0.71230178  0.97771755    -0.72300
O1276       O  0.80801775  0.66911982  0.96984280    -0.72300
O1277       O  0.74569644  0.69045273  0.93092040    -0.72300
O1278       O  0.79806955  0.69119263  0.01673600    -0.72400
V1279       V  0.67704956  0.68056188  0.98643666     1.35200
V1280       V  0.76924264  0.69060816  0.97410915     1.35200
C1281       C  0.75832648  0.68714564  0.03842350     0.77000
C1282       C  0.69270934  0.68348632  0.92156919     0.77000
C1283       C  0.77288917  0.65679602  0.97730841     0.76900
C1284       C  0.66960054  0.71402938  0.98254675     0.76900
O1285       O  0.68397487  0.56076129  0.17791859    -0.72200
O1286       O  0.64136122  0.56534076  0.26619749    -0.72500
O1287       O  0.69272145  0.58470434  0.22174662    -0.72300
O1288       O  0.62780590  0.54122487  0.22262351    -0.72300
O1289       O  0.72826381  0.53198150  0.23249025    -0.72300
O1290       O  0.79182759  0.57620961  0.23652311    -0.72300
O1291       O  0.73872593  0.55492674  0.27766238    -0.72300
O1292       O  0.78487258  0.55302274  0.19132358    -0.72400
V1293       V  0.66322722  0.56276153  0.22223950     1.35200
V1294       V  0.75896952  0.55419056  0.23418071     1.35200
C1295       C  0.74331052  0.55661015  0.16980415     0.77000
C1296       C  0.68381648  0.56098890  0.28711134     0.77000
C1297       C  0.75233723  0.58798212  0.22975335     0.76900
C1298       C  0.66608361  0.52915683  0.22807800     0.76900
O1299       O  0.90670952  0.68137462  0.17948302    -0.72200
O1300       O  0.93911580  0.68067012  0.26900862    -0.72500
O1301       O  0.89207944  0.65948815  0.22614613    -0.72300
O1302       O  0.95804140  0.70264242  0.22245251    -0.72300
O1303       O  0.85904418  0.71247679  0.23310676    -0.72300
O1304       O  0.78994935  0.66849426  0.23176544    -0.72300
O1305       O  0.83639752  0.68917911  0.27640153    -0.72300
O1306       O  0.80778841  0.69191630  0.18840281    -0.72400
V1307       V  0.92208925  0.68128731  0.22437139     1.35200
V1308       V  0.82524486  0.69038783  0.23221439     1.35200
C1309       C  0.85052304  0.68655170  0.16896746     0.77000
C1310       C  0.89181711  0.68446988  0.28779450     0.77000
C1311       C  0.83036826  0.65642979  0.22897808     0.76900
C1312       C  0.92138411  0.71494257  0.22829499     0.76900
O1313       O  0.01351327  0.93200289  0.78872702    -0.72200
O1314       O  0.55902128  0.93253269  0.70071620    -0.72500
O1315       O  0.56407768  0.95408647  0.74859063    -0.72300
O1316       O  0.01228528  0.90989848  0.74105977    -0.72300
O1317       O  0.90802997  0.91733943  0.73423617    -0.72300
O1318       O  0.96629711  0.96203015  0.73157998    -0.72300
O1319       O  0.95450637  0.93740309  0.68986285    -0.72300
O1320       O  0.91534560  0.94178085  0.77673561    -0.72400
V1321       V  0.53537355  0.93224561  0.74464365     1.35200
V1322       V  0.93780563  0.93956960  0.73346837     1.35200
C1323       C  0.95589170  0.93691592  0.79778476     0.77000
C1324       C  0.01346562  0.93494208  0.68004263     0.77000
C1325       C  0.52671420  0.96553737  0.73898725     0.76900
C1326       C  0.95157859  0.90598890  0.73696076     0.76900
O1327       O  0.81373437  0.81118382  0.78437059    -0.72200
O1328       O  0.75451924  0.81471416  0.69820332    -0.72500
O1329       O  0.74849106  0.79146907  0.74231294    -0.72300
O1330       O  0.81624555  0.83446043  0.73993914    -0.72300
O1331       O  0.91469177  0.82543516  0.72626359    -0.72300
O1332       O  0.84369267  0.78175928  0.72579513    -0.72300
O1333       O  0.85308734  0.80604271  0.68318207    -0.72300
O1334       O  0.90918875  0.80113849  0.76815792    -0.72400
V1335       V  0.78519067  0.81273955  0.74101721     1.35200
V1336       V  0.87823732  0.80372355  0.72608575     1.35200
C1337       C  0.87255323  0.80589406  0.79067824     0.77000
C1338       C  0.79480279  0.81105122  0.67608879     0.77000
C1339       C  0.78290111  0.77923603  0.73364495     0.76900
C1340       C  0.87685933  0.83743948  0.73367124     0.76900
O1341       O  0.81980540  0.93072535  0.94162955    -0.72200
O1342       O  0.79697976  0.93047402  0.03173828    -0.72500
O1343       O  0.77401052  0.95215839  0.98541302    -0.72300
O1344       O  0.83862945  0.90902973  0.98808704    -0.72300
O1345       O  0.94168957  0.91750228  0.99108361    -0.72300
O1346       O  0.87456594  0.96160024  0.99410249    -0.72300
O1347       O  0.90072564  0.93833745  0.03732396    -0.72300
O1348       O  0.91973566  0.94089302  0.94854436    -0.72400
V1349       V  0.80932293  0.93081971  0.98682211     1.35200
V1350       V  0.90726252  0.93945512  0.99270779     1.35200
C1351       C  0.87490613  0.93562597  0.92996235     0.77000
C1352       C  0.84591004  0.93419047  0.04979183     0.77000
C1353       C  0.81193558  0.96419463  0.99028899     0.76900
C1354       C  0.90047707  0.90573577  0.98845280     0.76900
O1355       O  0.02912262  0.80921032  0.92939721    -0.72200
O1356       O  0.56855878  0.81175544  0.01800030    -0.72500
O1357       O  0.57705662  0.78834887  0.97317455    -0.72300
O1358       O  0.02451196  0.83265085  0.97423942    -0.72300
O1359       O  0.92172111  0.82587552  0.98544454    -0.72300
O1360       O  0.97501168  0.78071702  0.98351459    -0.72300
O1361       O  0.96607139  0.80434674  0.02802654    -0.72300
O1362       O  0.92668826  0.80235022  0.94071697    -0.72400
V1363       V  0.54776428  0.81031256  0.97387280     1.35200
V1364       V  0.94931369  0.80342638  0.98412489     1.35200
C1365       C  0.97028530  0.80547703  0.92007343     0.77000
C1366       C  0.02312800  0.80867870  0.03801227     0.77000
C1367       C  0.53602172  0.77697800  0.97824697     0.76900
C1368       C  0.96521072  0.83690472  0.98077014     0.76900
O1369       O  0.94441486  0.55911647  0.68330830    -0.72200
O1370       O  0.91358925  0.56083959  0.77305452    -0.72500
O1371       O  0.95030694  0.58235310  0.72871364    -0.72300
O1372       O  0.90299398  0.53776549  0.72796866    -0.72300
O1373       O  0.50572259  0.53066028  0.73939414    -0.72300
O1374       O  0.55582665  0.57600005  0.73437382    -0.72300
O1375       O  0.51953877  0.55551134  0.78065927    -0.72300
O1376       O  0.54704747  0.55107483  0.69271486    -0.72400
V1377       V  0.92984305  0.55985555  0.72831750     1.35200
V1378       V  0.53007245  0.55339968  0.73652011     1.35200
C1379       C  0.50210762  0.55496165  0.67295227     0.77000
C1380       C  0.96239897  0.55853994  0.79211978     0.77000
C1381       C  0.51045180  0.58694089  0.73125267     0.76900
C1382       C  0.94446418  0.52667544  0.73528075     0.76900
O1383       O  0.63635615  0.68339899  0.67680748    -0.72200
O1384       O  0.68009689  0.67929655  0.76475388    -0.72500
O1385       O  0.62840738  0.65963579  0.72029565    -0.72300
O1386       O  0.69241094  0.70309019  0.72133939    -0.72300
O1387       O  0.59143627  0.71234705  0.72960763    -0.72300
O1388       O  0.53019306  0.66801203  0.73638587    -0.72300
O1389       O  0.58384927  0.69030973  0.77630230    -0.72300
O1390       O  0.53456453  0.69016174  0.69005250    -0.72400
V1391       V  0.65753820  0.68157969  0.72094952     1.35200
V1392       V  0.56185568  0.69007802  0.73281016     1.35200
C1393       C  0.57633671  0.68684809  0.66858299     0.77000
C1394       C  0.63884304  0.68419483  0.78564481     0.77000
C1395       C  0.56964350  0.65629749  0.72913838     0.76900
C1396       C  0.65355535  0.71519572  0.72534716     0.76900
O1397       O  0.64406414  0.55958132  0.53253711    -0.72200
O1398       O  0.68300180  0.56446355  0.44446980    -0.72500
O1399       O  0.62714220  0.58319256  0.48900882    -0.72300
O1400       O  0.70366040  0.54074706  0.48788564    -0.72300
O1401       O  0.60530925  0.53011038  0.47918255    -0.72300
O1402       O  0.53070243  0.57329029  0.47390896    -0.72300
O1403       O  0.58937450  0.55235723  0.43313582    -0.72300
O1404       O  0.54428523  0.55097168  0.51999635    -0.72400
V1405       V  0.66275431  0.56173043  0.48832414     1.35200
V1406       V  0.56927753  0.55184263  0.47681769     1.35200
C1407       C  0.58608862  0.55497116  0.54123128     0.77000
C1408       C  0.64188187  0.55941766  0.42361661     0.77000
C1409       C  0.56694260  0.58556649  0.48063600     0.76900
C1410       C  0.66798795  0.52817042  0.48378623     0.76900
O1411       O  0.91413660  0.67901019  0.53189061    -0.72200
O1412       O  0.86878320  0.67823399  0.44348420    -0.72500
O1413       O  0.92042064  0.65671123  0.48494343    -0.72300
O1414       O  0.85862366  0.70039493  0.49057288    -0.72300
O1415       O  0.95738454  0.70928740  0.47753970    -0.72300
O1416       O  0.52197790  0.66498907  0.47556915    -0.72300
O1417       O  0.97068113  0.68609042  0.43309148    -0.72300
O1418       O  0.51289438  0.68840357  0.51980288    -0.72400
V1419       V  0.89237639  0.67876460  0.48756158     1.35200
V1420       V  0.48874932  0.68704101  0.47675303     1.35200
C1421       C  0.47231106  0.68371177  0.54056859     0.77000
C1422       C  0.91306712  0.68211084  0.42336234     0.77000
C1423       C  0.48141299  0.65327583  0.48000038     0.76900
C1424       C  0.89611025  0.71228146  0.48399719     0.76900
O1425       O  0.82359989  0.43180081  0.43672115    -0.72200
O1426       O  0.78537233  0.43041145  0.52555433    -0.72500
O1427       O  0.76635730  0.45248902  0.47910704    -0.72300
O1428       O  0.83894687  0.40976319  0.48286452    -0.72300
O1429       O  0.93804452  0.41952884  0.49357733    -0.72300
O1430       O  0.86466372  0.46284775  0.48914919    -0.72300
O1431       O  0.88427611  0.44060322  0.53517082    -0.72300
O1432       O  0.92204586  0.44180250  0.44788559    -0.72400
V1433       V  0.80535934  0.43136143  0.48124955     1.35200
V1434       V  0.90021625  0.44104239  0.49121872     1.35200
C1435       C  0.88056847  0.43679564  0.42740904     0.77000
C1436       C  0.82972646  0.43497121  0.54543041     0.77000
C1437       C  0.80240609  0.46496188  0.48350226     0.76900
C1438       C  0.90030072  0.40727124  0.48889062     0.76900
O1439       O  0.94637016  0.32790469  0.48603823    -0.72200
O1440       O  0.51051885  0.28376800  0.48968766    -0.72500
O1441       O  0.99666744  0.30833511  0.53096823    -0.72300
O1442       O  0.95674452  0.30320822  0.44436773    -0.72300
O1443       O  0.55239870  0.31432876  0.43229513    -0.72300
O1444       O  0.60104623  0.31331110  0.51994197    -0.72300
O1445       O  0.60711892  0.29200669  0.47219856    -0.72300
O1446       O  0.54941131  0.33593115  0.48085651    -0.72400
V1447       V  0.97929409  0.30593026  0.48745316     1.35200
V1448       V  0.57571080  0.31378437  0.47634772     1.35200
C1449       C  0.98806276  0.33955615  0.48420877     0.77000
C1450       C  0.57082642  0.28050238  0.48202690     0.77000
C1451       C  0.55615775  0.31058005  0.54040901     0.76900
C1452       C  0.99588934  0.30862366  0.42361557     0.76900
O1453       O  0.53670807  0.43054623  0.28946446    -0.72200
O1454       O  0.57626699  0.43021907  0.20032670    -0.72500
O1455       O  0.58654969  0.45240848  0.24727055    -0.72300
O1456       O  0.53210807  0.40830883  0.24208782    -0.72300
O1457       O  0.92810042  0.41580987  0.23637743    -0.72300
O1458       O  0.98675612  0.46055924  0.23345230    -0.72300
O1459       O  0.97195108  0.43585578  0.19123837    -0.72300
O1460       O  0.93766599  0.44046568  0.27832326    -0.72400
V1461       V  0.55609598  0.43055671  0.24476245     1.35200
V1462       V  0.95807025  0.43808637  0.23505898     1.35200
C1463       C  0.97921063  0.43555557  0.29875225     0.77000
C1464       C  0.52899996  0.43244622  0.18030655     0.77000
C1465       C  0.54772974  0.46404905  0.23986993     0.76900
C1466       C  0.97135195  0.40434249  0.23886636     0.76900
O1467       O  0.82864835  0.30994814  0.28889654    -0.72200
O1468       O  0.78113772  0.31327541  0.20127803    -0.72500
O1469       O  0.76764113  0.29030390  0.24569723    -0.72300
O1470       O  0.83768145  0.33301204  0.24440986    -0.72300
O1471       O  0.93546114  0.32365165  0.22982286    -0.72300
O1472       O  0.86575985  0.28001706  0.23471441    -0.72300
O1473       O  0.87819190  0.30256456  0.18920758    -0.72300
O1474       O  0.92743706  0.30102984  0.27510869    -0.72400
V1475       V  0.80563066  0.31138841  0.24490789     1.35200
V1476       V  0.89978809  0.30195010  0.23252033     1.35200
C1477       C  0.88776664  0.30545055  0.29669461     0.77000
C1478       C  0.82273122  0.30854878  0.18039394     0.77000
C1479       C  0.80360587  0.27785523  0.24026906     0.76900
C1480       C  0.89741469  0.33575563  0.23632022     0.76900
O1481       O  0.66246207  0.05921510  0.04207687    -0.72200
O1482       O  0.69892527  0.06112136  0.95270013    -0.72500
O1483       O  0.65186585  0.08197565  0.99618206    -0.72300
O1484       O  0.71495712  0.03869133  0.99818862    -0.72300
O1485       O  0.61521312  0.02955149  0.98658995    -0.72300
O1486       O  0.54974132  0.07381850  0.98864776    -0.72300
O1487       O  0.59624347  0.05331228  0.94376391    -0.72300
O1488       O  0.56342215  0.05001824  0.03101633    -0.72400
V1489       V  0.68013249  0.06007095  0.99722516     1.35200
V1490       V  0.58314402  0.05179418  0.98770962     1.35200
C1491       C  0.60534730  0.05435692  0.05176784     0.77000
C1492       C  0.65247272  0.05755699  0.93306477     0.77000
C1493       C  0.59084341  0.08553990  0.99239402     0.76900
C1494       C  0.67739890  0.02680874  0.99165676     0.76900
O1495       O  0.55233355  0.16562020  0.98495065    -0.72200
O1496       O  0.49002150  0.20983225  0.99004340    -0.72500
O1497       O  0.54137370  0.18813920  0.03125155    -0.72300
O1498       O  0.50460868  0.18740064  0.94363003    -0.72300
O1499       O  0.90500401  0.17751091  0.95227200    -0.72300
O1500       O  0.43865952  0.18082338  0.04138518    -0.72300
O1501       O  0.88841482  0.20091368  0.99621639    -0.72300
O1502       O  0.45218350  0.15743120  0.99738384    -0.72400
V1503       V  0.52014177  0.18760912  0.98769713     1.35200
V1504       V  0.92293892  0.17936276  0.99668401     1.35200
C1505       C  0.51225169  0.15398570  0.99058596     0.77000
C1506       C  0.92768128  0.21285185  0.99312514     0.77000
C1507       C  0.49696185  0.18466093  0.05123934     0.76900
C1508       C  0.94970646  0.18202047  0.93291598     0.76900
O1509       O  0.95534177  0.06110648  0.19122229    -0.72200
O1510       O  0.90871339  0.06102977  0.27921140    -0.72500
O1511       O  0.95351507  0.08346209  0.23842939    -0.72300
O1512       O  0.90646231  0.03893877  0.23227770    -0.72300
O1513       O  0.00507100  0.03187199  0.25005674    -0.72300
O1514       O  0.55850142  0.07682198  0.24468903    -0.72300
O1515       O  0.01398580  0.05727688  0.29043454    -0.72300
O1516       O  0.55410717  0.05153916  0.20396892    -0.72400
V1517       V  0.93285079  0.06101749  0.23536008     1.35200
V1518       V  0.53114363  0.05444033  0.24696806     1.35200
C1519       C  0.51343923  0.05618516  0.18282761     0.77000
C1520       C  0.95460468  0.05938550  0.29999816     0.77000
C1521       C  0.51374556  0.08789032  0.24185990     0.76900
C1522       C  0.94533638  0.02789168  0.24242464     0.76900
O1523       O  0.64865002  0.18099552  0.18960800    -0.72200
O1524       O  0.69235429  0.18102553  0.27784642    -0.72500
O1525       O  0.63862390  0.15953984  0.23705466    -0.72300
O1526       O  0.70571163  0.20246425  0.23061607    -0.72300
O1527       O  0.60696329  0.21256025  0.24105609    -0.72300
O1528       O  0.53878456  0.16896076  0.24791915    -0.72300
O1529       O  0.59273489  0.19083046  0.28800320    -0.72300
O1530       O  0.54971444  0.19086653  0.20095971    -0.72400
V1531       V  0.66938853  0.18122999  0.23390875     1.35200
V1532       V  0.57396373  0.19063934  0.24420926     1.35200
C1533       C  0.59090968  0.18580087  0.18048620     0.77000
C1534       C  0.64905110  0.18578451  0.29788788     0.77000
C1535       C  0.57809778  0.15682422  0.24392753     0.76900
C1536       C  0.66885575  0.21486077  0.23529028     0.76900
C1537       C  0.00289599  0.13383057  0.22734186    -0.02300
C1538       C  0.55566547  0.13966876  0.24656877     0.07400
C1539       C  0.59336953  0.12856422  0.26518660    -0.02400
C1540       C  0.57914177  0.11169342  0.26416370    -0.02400
C1541       C  0.52979639  0.10564261  0.24297705     0.07500
C1542       C  0.99222938  0.11685884  0.22428650    -0.02600
Br1543     Br  0.93007659  0.10924557  0.19209626    -0.01200
Br1544     Br  0.94608889  0.14900765  0.20438105    -0.01200
Br1545     Br  0.62551989  0.09722197  0.29316270    -0.14000
Br1546     Br  0.66353622  0.13650691  0.29311188    -0.01200
C1547       C  0.55966661  0.17041490  0.13115032    -0.02300
C1548       C  0.57012322  0.18548345  0.14687649     0.07400
C1549       C  0.55315956  0.20025946  0.13156313    -0.02400
C1550       C  0.52756938  0.19997769  0.10043558    -0.02400
C1551       C  0.51507510  0.18490879  0.08513005     0.07500
C1552       C  0.53003966  0.17012459  0.10077895    -0.02600
Br1553     Br  0.01027447  0.14947090  0.08047875    -0.01200
Br1554     Br  0.58609351  0.15015955  0.15105419    -0.01200
Br1555     Br  0.50954947  0.22024351  0.07860823    -0.01200
Br1556     Br  0.56714189  0.22094568  0.15291815    -0.01200
C1557       C  0.58970567  0.06583131  0.13986513    -0.02300
C1558       C  0.53529860  0.05602092  0.14932703     0.07400
C1559       C  0.50619277  0.04509309  0.12758350    -0.02400
C1560       C  0.53008392  0.04415542  0.09620531    -0.02400
C1561       C  0.58481871  0.05415390  0.08610064     0.07500
C1562       C  0.61489850  0.06484278  0.10868619    -0.02600
Br1563     Br  0.68943374  0.07876113  0.09778310    -0.01200
Br1564     Br  0.62804432  0.08127654  0.16967436    -0.01200
Br1565     Br  0.48663235  0.02849340  0.06836349    -0.01200
Br1566     Br  0.93502289  0.03081383  0.14159425    -0.01200
C1567       C  0.61031801  0.11513106  0.00748023    -0.02300
C1568       C  0.56991177  0.10308267  0.99204914     0.07400
C1569       C  0.51189465  0.10816005  0.97511117    -0.02400
C1570       C  0.49259593  0.12476388  0.97510665    -0.02400
C1571       C  0.53402528  0.13668340  0.98969900     0.07500
C1572       C  0.59374688  0.13184503  0.00514882    -0.02600
Br1573     Br  0.65194017  0.14801808  0.02478208    -0.01200
Br1574     Br  0.68710850  0.10936994  0.03370892    -0.01200
Br1575     Br  0.40951977  0.13101746  0.95408729    -0.01200
Br1576     Br  0.46013595  0.09289398  0.94972531    -0.01200
C1577       C  0.72145625  0.25753737  0.26213964    -0.02300
C1578       C  0.77143753  0.26141445  0.23961110     0.07400
C1579       C  0.78460691  0.25026680  0.21466981    -0.02400
C1580       C  0.74893037  0.23539479  0.21251025    -0.02400
C1581       C  0.69958472  0.23144723  0.23525339     0.07500
C1582       C  0.68544395  0.24273308  0.25983151    -0.02600
Br1583     Br  0.61890511  0.23777163  0.29158015    -0.01200
Br1584     Br  0.70387961  0.27207319  0.29752976    -0.01200
Br1585     Br  0.76550385  0.22086776  0.17702332    -0.01200
Br1586     Br  0.84866800  0.25562183  0.18210426    -0.01200
C1587       C  0.49049299  0.37494799  0.25564182    -0.02300
C1588       C  0.95292075  0.38664988  0.23784604     0.07400
C1589       C  0.89988482  0.38113378  0.21806824    -0.02400
C1590       C  0.88349317  0.36437803  0.21685267    -0.02400
C1591       C  0.92043605  0.35289286  0.23486473     0.07500
C1592       C  0.47405452  0.35818809  0.25408259    -0.02600
Br1593     Br  0.52188173  0.34253768  0.28017699    -0.01200
Br1594     Br  0.56291196  0.38143983  0.28380885    -0.01200
Br1595     Br  0.81058578  0.35709007  0.18980952    -0.01200
Br1596     Br  0.85117800  0.39613583  0.19096873    -0.01200
C1597       C  0.93290645  0.32130795  0.37881699    -0.02300
C1598       C  0.97363868  0.30844905  0.39030835     0.07400
C1599       C  0.48449692  0.29441926  0.37153915    -0.02400
C1600       C  0.95418913  0.29312424  0.34144508    -0.02400
C1601       C  0.91279025  0.30597572  0.32982209     0.07500
C1602       C  0.90281876  0.32015601  0.34863566    -0.02600
Br1603     Br  0.85139226  0.33853426  0.33272225    -0.01200
Br1604     Br  0.91857693  0.34059985  0.40455787    -0.01200
Br1605     Br  0.46794226  0.27332479  0.31691039    -0.01200
Br1606     Br  0.54085435  0.27693744  0.38737573    -0.01200
C1607       C  0.92904925  0.45082558  0.38030779    -0.02300
C1608       C  0.90080470  0.43663058  0.39366781     0.07400
C1609       C  0.89912414  0.42199309  0.37574475    -0.02400
C1610       C  0.92684985  0.42151908  0.34506012    -0.02400
C1611       C  0.95807868  0.43550163  0.33234285     0.07500
C1612       C  0.45719045  0.45026152  0.34977814    -0.02600
Br1613     Br  0.49157417  0.46997269  0.33115970    -0.01200
Br1614     Br  0.42591279  0.47137752  0.40318992    -0.01200
Br1615     Br  0.91803321  0.40195231  0.31973249    -0.01200
Br1616     Br  0.86089258  0.40238843  0.39341961    -0.01200
C1617       C  0.98127043  0.38570604  0.47072078    -0.02300
C1618       C  0.92619705  0.39029924  0.48969340     0.07400
C1619       C  0.89186413  0.37832433  0.50724374    -0.02400
C1620       C  0.91240418  0.36180734  0.50581632    -0.02400
C1621       C  0.96650567  0.35701852  0.48605754     0.07500
C1622       C  0.50111766  0.36915076  0.46863067    -0.02600
Br1623     Br  0.57350762  0.36343353  0.44003138    -0.01200
Br1624     Br  0.52681086  0.40195326  0.44562800    -0.01200
Br1625     Br  0.86765239  0.34613816  0.53255699    -0.01200
Br1626     Br  0.81713177  0.38453906  0.53407909    -0.01200
C1627       C  0.74495082  0.50752130  0.50891530    -0.02300
C1628       C  0.70017339  0.51173155  0.48413244     0.07400
C1629       C  0.69059167  0.50070723  0.45868845    -0.02400
C1630       C  0.72585182  0.48566066  0.45795402    -0.02400
C1631       C  0.77083957  0.48147409  0.48272907     0.07500
C1632       C  0.78057787  0.49254455  0.50808520    -0.02600
Br1633     Br  0.84027586  0.48697919  0.54267366    -0.01200
Br1634     Br  0.75444314  0.52180203  0.54527952    -0.01200
Br1635     Br  0.71502370  0.47121639  0.42187954    -0.01200
Br1636     Br  0.63150320  0.50645412  0.42396563    -0.01200
C1637       C  0.56628427  0.61320043  0.45595049    -0.02300
C1638       C  0.54093032  0.60244539  0.47889528     0.07400
C1639       C  0.49638552  0.60828354  0.50210746    -0.02400
C1640       C  0.47792677  0.62494943  0.50282623    -0.02400
C1641       C  0.50344082  0.63587668  0.47987832     0.07500
C1642       C  0.54735327  0.62985471  0.45626635    -0.02600
Br1643     Br  0.57945781  0.64406413  0.42331276    -0.01200
Br1644     Br  0.62595346  0.60494782  0.42354479    -0.01200
Br1645     Br  0.92077555  0.63268476  0.53677059    -0.01200
Br1646     Br  0.96308791  0.59346487  0.53380179    -0.01200
C1647       C  0.54668380  0.67285844  0.58343818    -0.02300
C1648       C  0.49482284  0.68367632  0.57390898     0.07400
C1649       C  0.47246261  0.69597966  0.59479342    -0.02400
C1650       C  0.50319877  0.69782962  0.62470862    -0.02400
C1651       C  0.55297586  0.68649682  0.63505965     0.07500
C1652       C  0.57416693  0.67388990  0.61419265    -0.02600
Br1653     Br  0.63804497  0.65736735  0.62769215    -0.01200
Br1654     Br  0.57988191  0.65642916  0.55427815    -0.01200
Br1655     Br  0.48028614  0.71680202  0.65015256    -0.01200
Br1656     Br  0.90065546  0.71057461  0.58195804    -0.01200
C1657       C  0.55992423  0.56806844  0.62720004    -0.02300
C1658       C  0.51949058  0.55529781  0.63880584     0.07400
C1659       C  0.00319966  0.54207027  0.61870306    -0.02400
C1660       C  0.52674547  0.54166184  0.58717857    -0.02400
C1661       C  0.56587778  0.55470302  0.57522234     0.07500
C1662       C  0.58190122  0.56796936  0.59551644    -0.02600
Br1663     Br  0.63103019  0.58660095  0.57990800    -0.01200
Br1664     Br  0.58633116  0.58575970  0.65493769    -0.01200
Br1665     Br  0.00847773  0.52260430  0.56124673    -0.01200
Br1666     Br  0.95099652  0.52417025  0.63493430    -0.01200
C1667       C  0.57046882  0.61167187  0.75309087    -0.02300
C1668       C  0.52567692  0.60476641  0.73070001     0.07400
C1669       C  0.99184950  0.61521640  0.70897650    -0.02400
C1670       C  0.00460372  0.63219344  0.70909391    -0.02400
C1671       C  0.54974957  0.63894058  0.73124929     0.07500
C1672       C  0.58227708  0.62867788  0.75333129    -0.02600
Br1673     Br  0.64213210  0.63809648  0.78456262    -0.01200
Br1674     Br  0.61293383  0.59815008  0.78486718    -0.01200
Br1675     Br  0.96315670  0.64617074  0.67774040    -0.01200
Br1676     Br  0.92954907  0.60650770  0.67789732    -0.01200
C1677       C  0.72614820  0.98335311  0.01246848    -0.02300
C1678       C  0.78115548  0.98064279  0.99193884     0.07400
C1679       C  0.80019960  0.99293395  0.97065147    -0.02400
C1680       C  0.76294369  0.00763433  0.96916461    -0.02400
C1681       C  0.70813540  0.01036230  0.98980927     0.07500
C1682       C  0.69048692  0.99826671  0.01169680    -0.02600
Br1683     Br  0.62056441  0.00250632  0.04209035    -0.01200
Br1684     Br  0.70097391  0.96689538  0.04281019    -0.01200
Br1685     Br  0.78584553  0.02385163  0.93799649    -0.01200
Br1686     Br  0.87610505  0.98954029  0.94298943    -0.01200
C1687       C  0.97553272  0.88188850  0.00271725    -0.02300
C1688       C  0.92151100  0.88840179  0.98491769     0.07400
C1689       C  0.88362457  0.87791595  0.96471982    -0.02400
C1690       C  0.89724013  0.86102692  0.96382221    -0.02400
C1691       C  0.94865458  0.85446023  0.98288746     0.07500
C1692       C  0.98830134  0.86491453  0.00207824    -0.02600
Br1693     Br  0.55823175  0.85592424  0.02893651    -0.01200
Br1694     Br  0.53180472  0.89590433  0.02852834    -0.01200
Br1695     Br  0.84795054  0.84699338  0.93497386    -0.01200
Br1696     Br  0.81548793  0.88651982  0.93622714    -0.01200
C1697       C  0.66419328  0.74331464  0.75001680    -0.02300
C1698       C  0.68215695  0.73207740  0.72596398     0.07400
C1699       C  0.73288933  0.73642135  0.70423833    -0.02400
C1700       C  0.76769324  0.75140175  0.70741906    -0.02400
C1701       C  0.75055633  0.76265725  0.73182075     0.07500
C1702       C  0.69754793  0.75850783  0.75282293    -0.02600
Br1703     Br  0.67053319  0.77311124  0.78679714    -0.01200
Br1704     Br  0.59574289  0.73769600  0.78044438    -0.01200
Br1705     Br  0.83649570  0.75648162  0.67679339    -0.01200
Br1706     Br  0.75193306  0.72229267  0.66841429    -0.01200
C1707       C  0.88452596  0.79236728  0.84336423    -0.02300
C1708       C  0.89945106  0.80553999  0.82340740     0.07400
C1709       C  0.94421348  0.81779946  0.83401826    -0.02400
C1710       C  0.96853252  0.81774948  0.86544078    -0.02400
C1711       C  0.95097853  0.80491314  0.88604237     0.07500
C1712       C  0.91024393  0.79198266  0.87448358    -0.02600
Br1713     Br  0.89162017  0.77323466  0.90063103    -0.01200
Br1714     Br  0.83203581  0.77434952  0.82726568    -0.01200
Br1715     Br  0.52200577  0.83592269  0.88047354    -0.01200
Br1716     Br  0.47405074  0.83445473  0.80525539    -0.01200
C1717       C  0.96184875  0.92467937  0.85284317    -0.02300
C1718       C  0.93452946  0.93651365  0.83182742     0.07400
C1719       C  0.88328614  0.94730330  0.84328191    -0.02400
C1720       C  0.86019987  0.94616122  0.87475639    -0.02400
C1721       C  0.88955929  0.93484429  0.89562499     0.07500
C1722       C  0.93999136  0.92405915  0.88451397    -0.02600
Br1723     Br  0.97845961  0.90801153  0.91280608    -0.01200
Br1724     Br  0.52771441  0.90864187  0.83894754    -0.01200
Br1725     Br  0.78925973  0.96043322  0.88985862    -0.01200
Br1726     Br  0.84642125  0.96463460  0.81733044    -0.01200
C1727       C  0.88800330  0.88229659  0.75841974    -0.02300
C1728       C  0.93295902  0.88848639  0.73598217     0.07400
C1729       C  0.96448725  0.87767650  0.71437689    -0.02400
C1730       C  0.94922944  0.86082049  0.71436372    -0.02400
C1731       C  0.90093551  0.85468825  0.73568643     0.07500
C1732       C  0.87229860  0.86551175  0.75850366    -0.02600
Br1733     Br  0.81534596  0.85748806  0.79201288    -0.01200
Br1734     Br  0.85097835  0.89672735  0.79044097    -0.01200
Br1735     Br  0.49492894  0.84652242  0.68469533    -0.01200
Br1736     Br  0.52689577  0.88607436  0.68372344    -0.01200
C1737       C  0.89659124  0.66845947  0.33802611    -0.02300
C1738       C  0.89933662  0.68365678  0.32241409     0.07400
C1739       C  0.90056825  0.69829965  0.34016600    -0.02400
C1740       C  0.90281955  0.69774388  0.37335005    -0.02400
C1741       C  0.89977391  0.68257467  0.38907057     0.07500
C1742       C  0.89545785  0.66793627  0.37136330    -0.02600
Br1743     Br  0.39018021  0.64721032  0.39282781    -0.01200
Br1744     Br  0.89370921  0.64841543  0.31370023    -0.01200
Br1745     Br  0.91115809  0.71786907  0.39723320    -0.01200
Br1746     Br  0.89973115  0.71918861  0.31896290    -0.01200
C1747       C  0.71835954  0.56317254  0.37607812    -0.02300
C1748       C  0.65284566  0.56175111  0.38884010     0.07400
C1749       C  0.59683712  0.56251354  0.36783683    -0.02400
C1750       C  0.60615974  0.56211635  0.33475151    -0.02400
C1751       C  0.67178208  0.56272425  0.32195966     0.07500
C1752       C  0.72727981  0.56442066  0.34306589    -0.02600
Br1753     Br  0.81640601  0.56953078  0.32750384    -0.01200
Br1754     Br  0.79752526  0.56294618  0.40298555    -0.01200
Br1755     Br  0.52785964  0.55995790  0.30768348    -0.01200
Br1756     Br  0.50613901  0.56548381  0.38367289    -0.01200
C1757       C  0.62541104  0.48653774  0.25940449    -0.02300
C1758       C  0.57531247  0.48107597  0.23771739     0.07400
C1759       C  0.55707467  0.49140526  0.21224943    -0.02400
C1760       C  0.58812577  0.50683030  0.20858423    -0.02400
C1761       C  0.63733019  0.51232251  0.23049441     0.07500
C1762       C  0.65519987  0.50210923  0.25608124    -0.02600
Br1763     Br  0.71759304  0.50978319  0.28814152    -0.01200
Br1764     Br  0.65369376  0.47303100  0.29455397    -0.01200
Br1765     Br  0.56549241  0.52001406  0.17217620    -0.01200
Br1766     Br  0.49308907  0.48412614  0.18061950    -0.01200
C1767       C  0.84089717  0.62742826  0.20869652    -0.02300
C1768       C  0.80808322  0.63899926  0.22873020     0.07400
C1769       C  0.75775185  0.63348228  0.24962157    -0.02400
C1770       C  0.74041676  0.61673459  0.25028058    -0.02400
C1771       C  0.77414406  0.60528863  0.23069522     0.07500
C1772       C  0.82439254  0.61068647  0.21000285    -0.02600
Br1773     Br  0.86839581  0.59515977  0.18213660    -0.01200
Br1774     Br  0.90640295  0.63426093  0.17777165    -0.01200
Br1775     Br  0.67167541  0.60932262  0.27895179    -0.01200
Br1776     Br  0.71478217  0.64848064  0.27885569    -0.01200
C1777       C  0.73243165  0.68307980  0.86475053    -0.02300
C1778       C  0.67855886  0.68218396  0.88675237     0.07400
C1779       C  0.61196952  0.68072760  0.87489228    -0.02400
C1780       C  0.59987934  0.68030358  0.84194298    -0.02400
C1781       C  0.65312559  0.68282848  0.82025985     0.07500
C1782       C  0.71945528  0.68433387  0.83204647    -0.02600
Br1783     Br  0.79329657  0.68934582  0.80403603    -0.01200
Br1784     Br  0.82579704  0.68162879  0.87818129    -0.01200
Br1785     Br  0.50964812  0.67542152  0.82710168    -0.01200
Br1786     Br  0.53548560  0.68005309  0.90303983    -0.01200
C1787       C  0.63621687  0.73953215  0.95376773    -0.02300
C1788       C  0.63556488  0.73022681  0.98174199     0.07400
C1789       C  0.59575405  0.73553666  0.00752201    -0.02400
C1790       C  0.55858114  0.75029864  0.00566921    -0.02400
C1791       C  0.56164224  0.75992012  0.97814376     0.07500
C1792       C  0.59928432  0.75428000  0.95196917    -0.02600
Br1793     Br  0.59788541  0.76652500  0.91299183    -0.01200
Br1794     Br  0.68533481  0.73177116  0.91727529    -0.01200
Br1795     Br  0.00585777  0.75761799  0.04131999    -0.01200
Br1796     Br  0.59508653  0.72304291  0.04613545    -0.01200
C1797       C  0.82943472  0.69884838  0.08306365    -0.02300
C1798       C  0.78227993  0.68704328  0.07199295     0.07400
C1799       C  0.76189674  0.67448043  0.09273148    -0.02400
C1800       C  0.78571062  0.67419208  0.12417932    -0.02400
C1801       C  0.83235290  0.68593629  0.13500911     0.07500
C1802       C  0.85452674  0.69816310  0.11435186    -0.02600
Br1803     Br  0.91726473  0.71440805  0.12966104    -0.01200
Br1804     Br  0.85839090  0.71660880  0.05642065    -0.01200
Br1805     Br  0.75374619  0.65762423  0.15267346    -0.01200
Br1806     Br  0.70483953  0.65684063  0.07811057    -0.01200
C1807       C  0.91722411  0.57346818  0.87502324    -0.02300
C1808       C  0.94675487  0.56118940  0.89397072     0.07400
C1809       C  0.98296489  0.54834650  0.87953462    -0.02400
C1810       C  0.98617788  0.54720790  0.84627738    -0.02400
C1811       C  0.95465596  0.55924853  0.82709575     0.07500
C1812       C  0.92081802  0.57250707  0.84174008    -0.02600
Br1813     Br  0.88118649  0.58971694  0.81650492    -0.01200
Br1814     Br  0.87466330  0.59208298  0.89493638    -0.01200
Br1815     Br  0.52975478  0.52833670  0.82735663    -0.01200
Br1816     Br  0.02738963  0.53216756  0.90551408    -0.01200
C1817       C  0.80162209  0.54241933  0.12457821    -0.02300
C1818       C  0.76645638  0.55628755  0.13632639     0.07400
C1819       C  0.76193309  0.57046336  0.11741597    -0.02400
C1820       C  0.79449978  0.57095401  0.08777665    -0.02400
C1821       C  0.83041487  0.55718550  0.07632319     0.07500
C1822       C  0.83205525  0.54277124  0.09447676    -0.02600
Br1823     Br  0.87426486  0.52329717  0.07765924    -0.01200
Br1824     Br  0.80639051  0.52261673  0.14931601    -0.01200
Br1825     Br  0.78933240  0.59051297  0.06253802    -0.01200
Br1826     Br  0.71322845  0.58949650  0.13238386    -0.01200
C1827       C  0.87293012  0.61847017  0.99723714    -0.02300
C1828       C  0.83449518  0.60605148  0.98157255     0.07400
C1829       C  0.77793820  0.61092343  0.96310778    -0.02400
C1830       C  0.76115702  0.62765607  0.96008796    -0.02400
C1831       C  0.79889216  0.63976786  0.97601770     0.07500
C1832       C  0.85512516  0.63516143  0.99424009    -0.02600
Br1833     Br  0.90543824  0.65179787  0.01685511    -0.01200
Br1834     Br  0.94754375  0.61324970  0.02520356    -0.01200
Br1835     Br  0.68699187  0.63417615  0.93298017    -0.01200
Br1836     Br  0.72156094  0.59514385  0.94139634    -0.01200
C1837       C  0.96637279  0.17010809  0.84644476    -0.02300
C1838       C  0.93108235  0.18309512  0.83178578     0.07400
C1839       C  0.90101572  0.19546996  0.85074673    -0.02400
C1840       C  0.90341510  0.19442743  0.88389234    -0.02400
C1841       C  0.93889415  0.18156283  0.89843948     0.07500
C1842       C  0.97135805  0.16956013  0.87971234    -0.02600
Br1843     Br  0.52214630  0.15225797  0.89973949    -0.01200
Br1844     Br  0.50515314  0.15262045  0.82138572    -0.01200
Br1845     Br  0.85907056  0.21085770  0.90952909    -0.01200
Br1846     Br  0.85994941  0.21457612  0.83163925    -0.01200
C1847       C  0.64230875  0.04550300  0.84620255    -0.02300
C1848       C  0.66576294  0.05973269  0.83132062     0.07400
C1849       C  0.68859473  0.07298512  0.85000688    -0.02400
C1850       C  0.68533264  0.07230626  0.88332597    -0.02400
C1851       C  0.66157122  0.05806702  0.89824613     0.07500
C1852       C  0.64028274  0.04462958  0.87944839    -0.02600
Br1853     Br  0.61119176  0.02455136  0.89905105    -0.01200
Br1854     Br  0.61574597  0.02684810  0.82094479    -0.01200
Br1855     Br  0.71024844  0.09121908  0.90828381    -0.01200
Br1856     Br  0.72708045  0.09182965  0.82995464    -0.01200
C1857       C  0.62376632  0.98390752  0.72563439    -0.02300
C1858       C  0.55590502  0.98226426  0.73554489     0.07400
C1859       C  0.51843752  0.99650568  0.74282516    -0.02400
C1860       C  0.54914210  0.01207906  0.74189517    -0.02400
C1861       C  0.61857181  0.01363522  0.73394257     0.07500
C1862       C  0.65509056  0.99936835  0.72540319    -0.02600
Br1863     Br  0.74791015  0.00065094  0.71186041    -0.01200
Br1864     Br  0.67408884  0.96513519  0.70995820    -0.01200
Br1865     Br  0.49447198  0.03094782  0.75328958    -0.01200
Br1866     Br  0.92525653  0.99483540  0.75543245    -0.01200
C1867       C  0.84334777  0.10847180  0.73394328    -0.02300
C1868       C  0.77737427  0.10471395  0.74376321     0.07400
C1869       C  0.73297996  0.11777966  0.75214312    -0.02400
C1870       C  0.75436180  0.13421845  0.75071268    -0.02400
C1871       C  0.81986226  0.13801108  0.73997288     0.07500
C1872       C  0.86284662  0.12491020  0.73010641    -0.02600
Br1873     Br  0.94586431  0.12886142  0.70742392    -0.01200
Br1874     Br  0.90838206  0.09131246  0.72455302    -0.01200
Br1875     Br  0.69128663  0.15124422  0.76333078    -0.01200
Br1876     Br  0.64244498  0.11359823  0.76710698    -0.01200
C1877       C  0.87566482  0.06937992  0.38029539    -0.02300
C1878       C  0.91893625  0.06076139  0.40103853     0.07400
C1879       C  0.97308266  0.05161941  0.38871039    -0.02400
C1880       C  0.98301561  0.05066872  0.35578291    -0.02400
C1881       C  0.94085091  0.05968383  0.33472426     0.07500
C1882       C  0.88734072  0.06917700  0.34740632    -0.02600
Br1883     Br  0.83075492  0.08257745  0.32050827    -0.01200
Br1884     Br  0.80059980  0.08185200  0.39700472    -0.01200
Br1885     Br  0.55182380  0.03573871  0.34039734    -0.01200
Br1886     Br  0.03151682  0.03946432  0.41696757    -0.01200
C1887       C  0.82216099  0.07073069  0.60370251    -0.02300
C1888       C  0.81583395  0.05644605  0.58490168     0.07400
C1889       C  0.77918667  0.04300156  0.59673789    -0.02400
C1890       C  0.74977306  0.04383132  0.62702236    -0.02400
C1891       C  0.75605783  0.05808642  0.64565686     0.07500
C1892       C  0.79118137  0.07162822  0.63363058    -0.02600
Br1893     Br  0.79449265  0.09170682  0.65769401    -0.01200
Br1894     Br  0.87126768  0.08939235  0.58829672    -0.01200
Br1895     Br  0.69932743  0.02556935  0.64292202    -0.01200
Br1896     Br  0.77170734  0.02303997  0.57221656    -0.01200
C1897       C  0.61954735  0.17694009  0.35255108    -0.02300
C1898       C  0.66278099  0.18553870  0.33221528     0.07400
C1899       C  0.71562433  0.19490319  0.34495552    -0.02400
C1900       C  0.72578124  0.19558906  0.37791398    -0.02400
C1901       C  0.68499175  0.18617721  0.39845071     0.07500
C1902       C  0.63098369  0.17704533  0.38547072    -0.02600
Br1903     Br  0.57277215  0.16418276  0.41199608    -0.01200
Br1904     Br  0.54507202  0.16458850  0.33520874    -0.01200
Br1905     Br  0.79228994  0.21073565  0.39430254    -0.01200
Br1906     Br  0.77177507  0.20763595  0.31721690    -0.01200
C1907       C  0.59919817  0.23469201  0.47348549    -0.02300
C1908       C  0.66170974  0.23263649  0.48921602     0.07400
C1909       C  0.69313494  0.24623455  0.50342061    -0.02400
C1910       C  0.66278949  0.26185413  0.50142468    -0.02400
C1911       C  0.60022044  0.26389920  0.48557030     0.07500
C1912       C  0.56752840  0.25013854  0.47261577    -0.02600
Br1913     Br  0.47937302  0.25227524  0.45352637    -0.01200
Br1914     Br  0.55829929  0.21656386  0.45111569    -0.01200
Br1915     Br  0.70484969  0.28014839  0.52282655    -0.01200
Br1916     Br  0.77575104  0.24330518  0.52709300    -0.01200
C1917       C  0.88292618  0.18698083  0.62170852    -0.02300
C1918       C  0.83761616  0.18471049  0.64670142     0.07400
C1919       C  0.76832572  0.18258952  0.63985667    -0.02400
C1920       C  0.74408994  0.18390872  0.60857981    -0.02400
C1921       C  0.78954374  0.18589986  0.58318280     0.07500
C1922       C  0.85986754  0.18670350  0.59012538    -0.02600
Br1923     Br  0.92752147  0.18629598  0.55725467    -0.01200
Br1924     Br  0.97640696  0.19164393  0.63069075    -0.01200
Br1925     Br  0.64775083  0.18357907  0.60176490    -0.01200
Br1926     Br  0.70576812  0.17697855  0.67306312    -0.01200
C1927       C  0.74877029  0.12804348  0.51090834    -0.02300
C1928       C  0.78441371  0.13884263  0.49090168     0.07400
C1929       C  0.83503148  0.13251676  0.47086199    -0.02400
C1930       C  0.84996127  0.11564842  0.47092061    -0.02400
C1931       C  0.81296840  0.10489082  0.49015777     0.07500
C1932       C  0.76222134  0.11109976  0.51002753    -0.02600
Br1933     Br  0.71406171  0.09649280  0.53760352    -0.01200
Br1934     Br  0.68480230  0.13631558  0.54158938    -0.01200
Br1935     Br  0.92093188  0.10726853  0.44406588    -0.01200
Br1936     Br  0.88245099  0.14664112  0.44212536    -0.01200
C1937       C  0.84634702  0.31756481  0.09344517    -0.02300
C1938       C  0.79093260  0.30920101  0.07956729     0.07400
C1939       C  0.74321991  0.30160068  0.09995729    -0.02400
C1940       C  0.75271210  0.30188064  0.13299987    -0.02400
C1941       C  0.80856152  0.30985362  0.14625257     0.07500
C1942       C  0.85502539  0.31777239  0.12652554    -0.02600
Br1943     Br  0.93088361  0.32921052  0.14505490    -0.01200
Br1944     Br  0.91066112  0.32947289  0.06825938    -0.01200
Br1945     Br  0.69187837  0.29013399  0.16029084    -0.01200
Br1946     Br  0.66462411  0.29011247  0.08422648    -0.01200
C1947       C  0.84458803  0.23420567  0.01153909    -0.02300
C1948       C  0.89976767  0.22977149  0.99211767     0.07400
C1949       C  0.92421437  0.24114327  0.97001191    -0.02400
C1950       C  0.89250553  0.25651883  0.96659338    -0.02400
C1951       C  0.83705571  0.26102415  0.98596301     0.07500
C1952       C  0.81405556  0.24977189  0.00877219    -0.02600
Br1953     Br  0.74364963  0.25573555  0.03818029    -0.01200
Br1954     Br  0.81191397  0.21933589  0.04344971    -0.01200
Br1955     Br  0.92488258  0.27085942  0.93387414    -0.01200
Br1956     Br  0.49949331  0.23561173  0.94287911    -0.01200
C1957       C  0.48871364  0.43741605  0.12353211    -0.02300
C1958       C  0.53904564  0.43135275  0.14498405     0.07400
C1959       C  0.59825792  0.42423165  0.13199016    -0.02400
C1960       C  0.60947454  0.42449562  0.09903798    -0.02400
C1961       C  0.56145618  0.43154898  0.07831379     0.07500
C1962       C  0.50074592  0.43769707  0.09063745    -0.02600
Br1963     Br  0.93536040  0.44765527  0.06243894    -0.01200
Br1964     Br  0.90143943  0.44540295  0.13739642    -0.01200
Br1965     Br  0.69072051  0.41460421  0.08218000    -0.01200
Br1966     Br  0.66369757  0.41295196  0.15823131    -0.01200
C1967       C  0.98822790  0.48564584  0.96042544    -0.02300
C1968       C  0.53629829  0.48102254  0.98361279     0.07400
C1969       C  0.55051298  0.49194898  0.00871813    -0.02400
C1970       C  0.01847276  0.50742336  0.01027331    -0.02400
C1971       C  0.96932047  0.51201886  0.98735064     0.07500
C1972       C  0.95362573  0.50079243  0.96272987    -0.02600
Br1973     Br  0.88645592  0.50605004  0.93102051    -0.01200
Br1974     Br  0.97231374  0.47166197  0.92404152    -0.01200
Br1975     Br  0.54141324  0.52184650  0.04514234    -0.01200
Br1976     Br  0.61078653  0.48540142  0.04252235    -0.01200
C1977       C  0.64034895  0.37700617  0.01042808    -0.02300
C1978       C  0.67348441  0.38810372  0.99041535     0.07400
C1979       C  0.72042938  0.38229940  0.96819773    -0.02400
C1980       C  0.73342173  0.36540890  0.96551302    -0.02400
C1981       C  0.70202888  0.35427200  0.98623699     0.07500
C1982       C  0.65576690  0.36016159  0.00890299    -0.02600
Br1983     Br  0.61602162  0.34543845  0.03905513    -0.01200
Br1984     Br  0.57422447  0.38491648  0.04026948    -0.01200
Br1985     Br  0.79081841  0.35759646  0.93173915    -0.01200
Br1986     Br  0.76442989  0.39747317  0.94028230    -0.01200
C1987       C  0.54743581  0.29651722  0.62539466    -0.02300
C1988       C  0.58930793  0.30791227  0.64068078     0.07400
C1989       C  0.62750045  0.31893093  0.62252702    -0.02400
C1990       C  0.61704071  0.31999334  0.58964633    -0.02400
C1991       C  0.57149390  0.30924857  0.57454182     0.07500
C1992       C  0.53927852  0.29697289  0.59242168    -0.02600
Br1993     Br  0.98860543  0.27968098  0.57187808    -0.01200
Br1994     Br  0.50753971  0.27904872  0.64915673    -0.01200
Br1995     Br  0.66400771  0.33650953  0.56595322    -0.01200
Br1996     Br  0.69680353  0.33203601  0.64226069    -0.01200
C1997       C  0.46946814  0.25886799  0.72864178    -0.02300
C1998       C  0.53913302  0.26048890  0.73620580     0.07400
C1999       C  0.57619354  0.24631233  0.74464063    -0.02400
C2000       C  0.54460366  0.23086729  0.74535501    -0.02400
C2001       C  0.97592348  0.22922232  0.73660654     0.07500
C2002       C  0.93908910  0.24328734  0.72772330    -0.02600
Br2003     Br  0.84795614  0.24119435  0.71176217    -0.01200
Br2004     Br  0.41315782  0.27770834  0.71926633    -0.01200
Br2005     Br  0.59588146  0.21215791  0.76019292    -0.01200
Br2006     Br  0.66942021  0.24793819  0.75777640    -0.01200
C2007       C  0.74466048  0.30289181  0.83525076    -0.02300
C2008       C  0.67577755  0.30569318  0.82687116     0.07400
C2009       C  0.62963006  0.30974796  0.85132955    -0.02400
C2010       C  0.65195925  0.31102335  0.88295810    -0.02400
C2011       C  0.71958907  0.30743007  0.89126419     0.07500
C2012       C  0.76600625  0.30371529  0.86713601    -0.02600
Br2013     Br  0.85917142  0.29931320  0.87755574    -0.01200
Br2014     Br  0.81345131  0.29795474  0.80402432    -0.01200
Br2015     Br  0.58906332  0.31884749  0.91468239    -0.01200
Br2016     Br  0.53447338  0.31288205  0.84289757    -0.01200
C2017       C  0.85950319  0.42357919  0.63147570    -0.02300
C2018       C  0.81048454  0.43329587  0.64714245     0.07400
C2019       C  0.76659311  0.44331149  0.62858317    -0.02400
C2020       C  0.77021947  0.44302847  0.59526503    -0.02400
C2021       C  0.82009815  0.43365759  0.58003751     0.07500
C2022       C  0.86544940  0.42418476  0.59825275    -0.02600
Br2023     Br  0.93588184  0.41176590  0.57753570    -0.01200
Br2024     Br  0.91709051  0.40867584  0.65465789    -0.01200
Br2025     Br  0.70897739  0.45623858  0.57030766    -0.01200
Br2026     Br  0.70389054  0.45861207  0.64788080    -0.01200
C2027       C  0.94797397  0.49634088  0.72348595    -0.02300
C2028       C  0.91898706  0.50974131  0.73966072     0.07400
C2029       C  0.86022689  0.50728008  0.75791135    -0.02400
C2030       C  0.82869370  0.49184736  0.75850093    -0.02400
C2031       C  0.85635828  0.47858768  0.74145838     0.07500
C2032       C  0.91634038  0.48090437  0.72399665    -0.02600
Br2033     Br  0.95327313  0.46323502  0.69869810    -0.01200
Br2034     Br  0.03008820  0.49912355  0.69992803    -0.01200
Br2035     Br  0.74878779  0.48878019  0.78356649    -0.01200
Br2036     Br  0.82501779  0.52478875  0.78411436    -0.01200
C2037       C  0.72834142  0.44594656  0.88602143    -0.02300
C2038       C  0.67786953  0.43474403  0.89559166     0.07400
C2039       C  0.65974544  0.42188988  0.87460923    -0.02400
C2040       C  0.69025393  0.42056272  0.84456821    -0.02400
C2041       C  0.73993705  0.43179862  0.83517117     0.07500
C2042       C  0.75983878  0.44424577  0.85626766    -0.02600
Br2043     Br  0.82952056  0.45922934  0.84380777    -0.01200
Br2044     Br  0.75178088  0.46455993  0.91226975    -0.01200
Br2045     Br  0.66444284  0.40310819  0.81607106    -0.01200
Br2046     Br  0.59491175  0.40557035  0.88682162    -0.01200
C2047       C  0.67628238  0.38024411  0.71535698    -0.02300
C2048       C  0.72618839  0.38539808  0.73701504     0.07400
C2049       C  0.76020229  0.37356894  0.75573384    -0.02400
C2050       C  0.74470723  0.35681421  0.75259337    -0.02400
C2051       C  0.69342651  0.35172641  0.73163083     0.07500
C2052       C  0.65857514  0.36359117  0.71335151    -0.02600
Br2053     Br  0.58565018  0.35731593  0.68535726    -0.01200
Br2054     Br  0.63441606  0.39574458  0.68685339    -0.01200
Br2055     Br  0.79022576  0.34106841  0.77920610    -0.01200
Br2056     Br  0.82518308  0.38016155  0.78757457    -0.01200
C2057       C  0.59308442  0.79926089  0.11918938    -0.02300
C2058       C  0.55230698  0.80932808  0.13914268     0.07400
C2059       C  0.50075156  0.81900612  0.12518229    -0.02400
C2060       C  0.99223982  0.81904157  0.09199900    -0.02400
C2061       C  0.53540600  0.80967529  0.07245213     0.07500
C2062       C  0.58608444  0.79994034  0.08611868    -0.02600
Br2063     Br  0.64416404  0.78675583  0.05940818    -0.01200
Br2064     Br  0.65483479  0.78301823  0.13616752    -0.01200
Br2065     Br  0.92216946  0.83242880  0.07320667    -0.01200
Br2066     Br  0.94107710  0.83239626  0.15058974    -0.01200
C2067       C  0.95458835  0.76060761  0.21516210    -0.02300
C2068       C  0.51812629  0.76265838  0.23008179     0.07400
C2069       C  0.54928071  0.74899016  0.24431240    -0.02400
C2070       C  0.01681642  0.73362671  0.24444864    -0.02400
C2071       C  0.95277480  0.73158509  0.22984073     0.07500
C2072       C  0.92184722  0.74525879  0.21533596    -0.02600
Br2073     Br  0.83573303  0.74298741  0.19435418    -0.01200
Br2074     Br  0.91384032  0.77857588  0.19225578    -0.01200
Br2075     Br  0.05949026  0.71569160  0.26674720    -0.01200
Br2076     Br  0.63569259  0.75132928  0.26482434    -0.01200
C2077       C  0.84124733  0.94815163  0.13573449    -0.02300
C2078       C  0.82724723  0.93336101  0.15139162     0.07400
C2079       C  0.82133320  0.91874725  0.13369555    -0.02400
C2080       C  0.82725303  0.91899743  0.10044250    -0.02400
C2081       C  0.83992905  0.93384862  0.08472922     0.07500
C2082       C  0.84932814  0.94832967  0.10263201    -0.02600
Br2083     Br  0.87162045  0.96858884  0.08185912    -0.01200
Br2084     Br  0.84708043  0.96833873  0.15952222    -0.01200
Br2085     Br  0.82067975  0.89888576  0.07646522    -0.01200
Br2086     Br  0.80254442  0.89849752  0.15503821    -0.01200
C2087       C  0.92488512  0.98155600  0.23630482    -0.02300
C2088       C  0.85863160  0.97957327  0.24823071     0.07400
C2089       C  0.82447372  0.99332027  0.26083485    -0.02400
C2090       C  0.85492081  0.00886980  0.26050635    -0.02400
C2091       C  0.91868233  0.01104700  0.24629601     0.07500
C2092       C  0.95393400  0.99727851  0.23467171    -0.02600
Br2093     Br  0.04022631  0.00004610  0.21455795    -0.01200
Br2094     Br  0.97629533  0.96299399  0.22083396    -0.01200
Br2095     Br  0.81015492  0.02703621  0.28139510    -0.01200
Br2096     Br  0.73714629  0.99087525  0.28020584    -0.01200
C2097       C  0.70588275  0.86030531  0.25737927    -0.02300
C2098       C  0.66106949  0.85523874  0.23340517     0.07400
C2099       C  0.63500660  0.86690871  0.21203048    -0.02400
C2100       C  0.65450563  0.88349628  0.21416932    -0.02400
C2101       C  0.70055449  0.88858596  0.23785569     0.07500
C2102       C  0.72515658  0.87686167  0.25982810    -0.02600
Br2103     Br  0.78207030  0.88336354  0.29498888    -0.01200
Br2104     Br  0.73845049  0.84462667  0.28800867    -0.01200
Br2105     Br  0.61957468  0.89889862  0.18360258    -0.01200
Br2106     Br  0.57470442  0.85998570  0.17873467    -0.01200
C2107       C  0.79827176  0.82369719  0.59046231    -0.02300
C2108       C  0.77011916  0.80971594  0.57581531     0.07400
C2109       C  0.74249540  0.79723504  0.59476790    -0.02400
C2110       C  0.74322739  0.79874722  0.62791307    -0.02400
C2111       C  0.77577615  0.81206775  0.64242365     0.07500
C2112       C  0.80135736  0.82477682  0.62371393    -0.02600
Br2113     Br  0.83702802  0.84406904  0.64395665    -0.01200
Br2114     Br  0.83041570  0.84166954  0.56531945    -0.01200
Br2115     Br  0.69796863  0.78282819  0.65356186    -0.01200
Br2116     Br  0.70831290  0.77734120  0.57571398    -0.01200
C2117       C  0.80578113  0.73225888  0.46730937    -0.02300
C2118       C  0.86747815  0.72914434  0.48330176     0.07400
C2119       C  0.90014389  0.74209238  0.49925254    -0.02400
C2120       C  0.87132756  0.75792121  0.49946189    -0.02400
C2121       C  0.81099093  0.76115350  0.48255051     0.07500
C2122       C  0.77865209  0.74825843  0.46632667    -0.02600
Br2123     Br  0.69955010  0.75265492  0.44086996    -0.01200
Br2124     Br  0.75863555  0.71483692  0.44547101    -0.01200
Br2125     Br  0.91304740  0.77490989  0.52474552    -0.01200
Br2126     Br  0.98280800  0.73807163  0.52232308    -0.01200
C2127       C  0.64754612  0.81868617  0.37877099    -0.02300
C2128       C  0.69956081  0.80801948  0.38853748     0.07400
C2129       C  0.72806619  0.79699729  0.36678416    -0.02400
C2130       C  0.70376978  0.79629909  0.33537546    -0.02400
C2131       C  0.65057272  0.80693110  0.32519941     0.07500
C2132       C  0.62344417  0.81830962  0.34734482    -0.02600
Br2133     Br  0.55545532  0.83420828  0.33534379    -0.01200
Br2134     Br  0.61024547  0.83425575  0.40865068    -0.01200
Br2135     Br  0.74368265  0.78003502  0.30765270    -0.01200
Br2136     Br  0.79884366  0.78231502  0.38077374    -0.01200
C2137       C  0.59072984  0.92527591  0.59911331    -0.02300
C2138       C  0.54474189  0.93310486  0.57851976     0.07400
C2139       C  0.49025048  0.94201062  0.59111032    -0.02400
C2140       C  0.98153673  0.94312708  0.62413292    -0.02400
C2141       C  0.52671682  0.93488978  0.64515821     0.07500
C2142       C  0.58253484  0.92629354  0.63217278    -0.02600
Br2143     Br  0.65009968  0.91603271  0.65869302    -0.01200
Br2144     Br  0.66496939  0.91267306  0.58187623    -0.01200
Br2145     Br  0.91059577  0.95750363  0.63948224    -0.01200
Br2146     Br  0.92990116  0.95371305  0.56298637    -0.01200
C2147       C  0.93940567  0.00216368  0.46500466    -0.02300
C2148       C  0.94751760  0.01194657  0.49238263     0.07400
C2149       C  0.99137869  0.00663086  0.51675813    -0.02400
C2150       C  0.52720427  0.99176189  0.51371247    -0.02400
C2151       C  0.51858965  0.98190250  0.48648549     0.07500
C2152       C  0.97465539  0.98719816  0.46211365    -0.02600
Br2153     Br  0.96488415  0.97431158  0.42383284    -0.01200
Br2154     Br  0.88294825  0.00954954  0.43049057    -0.01200
Br2155     Br  0.58536436  0.98461950  0.54778730    -0.01200
Br2156     Br  0.99994380  0.01930591  0.55535340    -0.01200
C2157       C  0.62911248  0.92550265  0.37250373    -0.02300
C2158       C  0.65070960  0.93745437  0.39470610     0.07400
C2159       C  0.70138076  0.94870637  0.38561108    -0.02400
C2160       C  0.73178435  0.94747667  0.35557412    -0.02400
C2161       C  0.70982977  0.93563270  0.33363452     0.07500
C2162       C  0.65750497  0.92489512  0.34196146    -0.02600
Br2163     Br  0.62515634  0.90908959  0.31142378    -0.01200
Br2164     Br  0.56346508  0.90919915  0.38382671    -0.01200
Br2165     Br  0.80269626  0.96232829  0.34397991    -0.01200
Br2166     Br  0.72728321  0.96664854  0.41313529    -0.01200
C2167       C  0.69914096  0.88317780  0.46554943    -0.02300
C2168       C  0.65127021  0.88875855  0.48754389     0.07400
C2169       C  0.61830566  0.87749515  0.50723384    -0.02400
C2170       C  0.63502271  0.86072313  0.50578313    -0.02400
C2171       C  0.68348974  0.85505047  0.48386050     0.07500
C2172       C  0.71499492  0.86638832  0.46349336    -0.02600
Br2173     Br  0.77697972  0.85909565  0.43110762    -0.01200
Br2174     Br  0.73931704  0.89847437  0.43657484    -0.01200
Br2175     Br  0.59346840  0.84585671  0.53514720    -0.01200
Br2176     Br  0.55030074  0.88506931  0.53650153    -0.01200
loop_ 
_geom_bond_atom_site_label_1 
_geom_bond_atom_site_label_2 
_geom_bond_distance 
_geom_bond_site_symmetry_2 
_ccdc_geom_bond_type 
O1            V9   1.922       .  S
O1           C11   1.272       .  A
O2            V9   1.918       .  S
O2           C12   1.270       .  A
O3            V9   1.882       .  S
O3           C13   1.259       .  A
O4            V9   1.883       .  S
O4           C14   1.258       .  A
O5           V10   1.912       .  S
O5           C14   1.268       .  A
O6           V10   1.917       .  S
O6           C13   1.270       .  A
O7           V10   1.882       .  S
O7           C12   1.259       .  A
O8           V10   1.885       .  S
O8           C11   1.259       .  A
V9           V10   2.086       .  T
C11        C1070   1.497       .  S
C12        C1050   1.480       .  S
C13        C1063   1.482       .  S
C14        C1080   1.471       .  S
O15          V23   1.918       .  S
O15          C25   1.269       .  A
O16          V23   1.915       .  S
O16          C26   1.269       .  A
O17          V23   1.889       .  S
O17          C27   1.261       .  A
O18          V23   1.884       .  S
O18          C28   1.259       .  A
O19          V24   1.910       .  S
O19          C28   1.268       .  A
O20          V24   1.916       .  S
O20          C27   1.270       .  A
O21          V24   1.882       .  S
O21          C26   1.259       .  A
O22          V24   1.885       .  S
O22          C25   1.259       .  A
V23          V24   2.085       .  T
C25        C1040   1.478       .  S
C26        C1020   1.480       .  S
C27        C1033   1.486       .  S
C28        C1083   1.483       .  S
O29          V37   1.922       .  S
O29          C39   1.270       .  A
O30          V37   1.921       .  S
O30          C40   1.270       .  A
O31          V37   1.890       .  S
O31          C41   1.260       .  A
O32          V37   1.887       .  S
O32          C42   1.260       .  A
O33          V38   1.920       .  S
O33          C42   1.271       .  A
O34          V38   1.919       .  S
O34          C41   1.271       .  A
O35          V38   1.891       .  S
O35          C40   1.260       .  A
O36          V38   1.892       .  S
O36          C39   1.260       .  A
V37          V38   2.085       .  T
C39        C1073   1.483       .  S
C40         C990   1.480       .  S
C41        C1000   1.491       .  S
C42        C1013   1.493       .  S
O43          V51   1.920       .  S
O43          C53   1.272       .  A
O44          V51   1.920       .  S
O44          C54   1.270       .  A
O45          V51   1.892       .  S
O45          C55   1.261       .  A
O46          V51   1.898       .  S
O46          C56   1.262       .  A
O47          V52   1.915       .  S
O47          C56   1.269       .  A
O48          V52   1.927       .  S
O48          C55   1.272       .  A
O49          V52   1.877       .  S
O49          C54   1.257       .  A
O50          V52   1.884       .  S
O50          C53   1.258       .  A
V51          V52   2.079       .  T
C53        C1043   1.503       .  S
C54         C970   1.496       .  S
C55         C980   1.497       .  S
C56        C1010   1.484       .  S
O57          V65   1.931       .  S
O57          C67   1.273       .  A
O58          V65   1.925       .  S
O58          C68   1.273       .  A
O59          V65   1.883       .  S
O59          C69   1.258       .  A
O60          V65   1.882       .  S
O60          C70   1.258       .  A
O61          V66   1.916       .  S
O61          C70   1.271       .  A
O62          V66   1.925       .  S
O62          C69   1.272       .  A
O63          V66   1.881       .  S
O63          C68   1.257       .  A
O64          V66   1.885       .  S
O64          C67   1.259       .  A
V65          V66   2.079       .  T
C67         C953   1.485       .  S
C68         C930   1.499       .  S
C69         C943   1.486       .  S
C70         C960   1.485       .  S
O71          V79   1.916       .  S
O71          C81   1.266       .  A
O72          V79   1.918       .  S
O72          C82   1.271       .  A
O73          V79   1.887       .  S
O73          C83   1.258       .  A
O74          V79   1.877       .  S
O74          C84   1.257       .  A
O75          V80   1.923       .  S
O75          C84   1.273       .  A
O76          V80   1.922       .  S
O76          C83   1.272       .  A
O77          V80   1.878       .  S
O77          C82   1.256       .  A
O78          V80   1.883       .  S
O78          C81   1.262       .  A
V79          V80   2.076       .  T
C81         C920   1.504       .  S
C82         C900   1.472       .  S
C83         C910   1.498       .  S
C84         C963   1.483       .  S
O85          V93   1.926       .  S
O85          C95   1.273       .  A
O86          V93   1.919   1_554  S
O86          C96   1.271       .  A
O87          V93   1.889       .  S
O87          C97   1.260       .  A
O88          V93   1.881       .  S
O88          C98   1.258       .  A
O89          V94   1.913       .  S
O89          C98   1.269       .  A
O90          V94   1.919       .  S
O90          C97   1.271       .  A
O91          V94   1.886   1_554  S
O91          C96   1.259       .  A
O92          V94   1.887       .  S
O92          C95   1.260       .  A
V93          V94   2.084       .  T
C95         C950   1.500       .  S
C96         C873   1.487       .  S
C97         C880   1.493       .  S
C98         C890   1.470       .  S
O99         V107   1.914       .  S
O99         C109   1.269       .  A
O100        V107   1.916       .  S
O100        C110   1.270       .  A
O101        V107   1.882   1_554  S
O101        C111   1.256       .  A
O102        V107   1.880       .  S
O102        C112   1.260       .  A
O103        V108   1.922       .  S
O103        C112   1.270       .  A
O104        V108   1.913   1_554  S
O104        C111   1.270       .  A
O105        V108   1.883       .  S
O105        C110   1.259       .  A
O106        V108   1.879       .  S
O106        C109   1.258       .  A
V107        V108   2.077       .  T
C109        C893   1.478       .  S
C110        C863   1.494       .  S
C111        C850   1.500       .  S
C112        C923   1.492       .  S
O113        V121   1.914       .  S
O113        C123   1.270       .  A
O114        V121   1.912       .  S
O114        C124   1.269       .  A
O115        V121   1.880       .  S
O115        C125   1.258       .  A
O116        V121   1.884       .  S
O116        C126   1.260       .  A
O117        V122   1.916       .  S
O117        C126   1.270       .  A
O118        V122   1.915       .  S
O118        C125   1.270       .  A
O119        V122   1.885       .  S
O119        C124   1.260       .  A
O120        V122   1.886       .  S
O120        C123   1.259       .  A
V121        V122   2.070       .  T
C123        C833   1.500       .  S
C124        C813   1.490       .  S
C125        C840   1.483       .  S
C126        C820   1.478       .  S
O127        V135   1.918       .  S
O127        C137   1.270       .  A
O128        V135   1.914       .  S
O128        C138   1.269       .  A
O129        V135   1.879       .  S
O129        C139   1.258       .  A
O130        V135   1.882       .  S
O130        C140   1.259       .  A
O131        V136   1.917       .  S
O131        C140   1.270       .  A
O132        V136   1.914       .  S
O132        C139   1.269       .  A
O133        V136   1.887       .  S
O133        C138   1.259       .  A
O134        V136   1.890       .  S
O134        C137   1.261       .  A
V135        V136   2.087       .  T
C137        C800   1.487       .  S
C138        C790   1.480       .  S
C139        C843   1.473       .  S
C140       C1060   1.482       .  S
O141        V149   1.921       .  S
O141        C151   1.269       .  A
O142        V149   1.927       .  S
O142        C152   1.272       .  A
O143        V149   1.880       .  S
O143        C153   1.257       .  A
O144        V149   1.887       .  S
O144        C154   1.258       .  A
O145        V150   1.919       .  S
O145        C154   1.272       .  A
O146        V150   1.917       .  S
O146        C153   1.271       .  A
O147        V150   1.885       .  S
O147        C152   1.257       .  A
O148        V150   1.895       .  S
O148        C151   1.261       .  A
V149        V150   2.083       .  T
C151        C803   1.482       .  S
C152        C760   1.480       .  S
C153        C780   1.495       .  S
C154        C773   1.501       .  S
O155        V163   1.918       .  S
O155        C165   1.271       .  A
O156        V163   1.918       .  S
O156        C166   1.270       .  A
O157        V163   1.883       .  S
O157        C167   1.257       .  A
O158        V163   1.889       .  S
O158        C168   1.261       .  A
O159        V164   1.916       .  S
O159        C168   1.271       .  A
O160        V164   1.916       .  S
O160        C167   1.271       .  A
O161        V164   1.879       .  S
O161        C166   1.259       .  A
O162        V164   1.880       .  S
O162        C165   1.258       .  A
V163        V164   2.070       .  T
C165        C830   1.485       .  S
C166        C750   1.481       .  S
C167        C783   1.501       .  S
C168        C913   1.491       .  S
O169        V177   1.929   1_554  S
O169        C179   1.272       .  A
O170        V177   1.921       .  S
O170        C180   1.269       .  A
O171        V177   1.887       .  S
O171        C181   1.258       .  A
O172        V177   1.890       .  S
O172        C182   1.261       .  A
O173        V178   1.923       .  S
O173        C182   1.272       .  A
O174        V178   1.918       .  S
O174        C181   1.271       .  A
O175        V178   1.891       .  S
O175        C180   1.260       .  A
O176        V178   1.892   1_554  S
O176        C179   1.259       .  A
V177        V178   2.081       .  T
C179        C733   1.487       .  S
C180        C720   1.481       .  S
C181        C740   1.504       .  S
C182        C883   1.500       .  S
O183        V191   1.918   1_554  S
O183        C193   1.271       .  A
O184        V191   1.920       .  S
O184        C194   1.269       .  A
O185        V191   1.882       .  S
O185        C195   1.259       .  A
O186        V191   1.889       .  S
O186        C196   1.259       .  A
O187        V192   1.918       .  S
O187        C196   1.270       .  A
O188        V192   1.919       .  S
O188        C195   1.270       .  A
O189        V192   1.883       .  S
O189        C194   1.260       .  A
O190        V192   1.889   1_554  S
O190        C193   1.260       .  A
V191        V192   2.081       .  T
C193        C710   1.495       .  S
C194        C690   1.501       .  S
C195        C743   1.481       .  S
C196        C700   1.482       .  S
O197        V205   1.927       .  S
O197        C207   1.272       .  A
O198        V205   1.921       .  S
O198        C208   1.269       .  A
O199        V205   1.888       .  S
O199        C209   1.259       .  A
O200        V205   1.898       .  S
O200        C210   1.262       .  A
O201        V206   1.917       .  S
O201        C210   1.270       .  A
O202        V206   1.918       .  S
O202        C209   1.270       .  A
O203        V206   1.884       .  S
O203        C208   1.260       .  A
O204        V206   1.888       .  S
O204        C207   1.260       .  A
V205        V206   2.083       .  T
C207        C730   1.491       .  S
C208        C663   1.500       .  S
C209        C683   1.480       .  S
C210        C673   1.496       .  S
O211        V219   1.921       .  S
O211        C221   1.270       .  A
O212        V219   1.917       .  S
O212        C222   1.269       .  A
O213        V219   1.882       .  S
O213        C223   1.258       .  A
O214        V219   1.890       .  S
O214        C224   1.260       .  A
O215        V220   1.928       .  S
O215        C224   1.273       .  A
O216        V220   1.924       .  S
O216        C223   1.272       .  A
O217        V220   1.883       .  S
O217        C222   1.258       .  A
O218        V220   1.888       .  S
O218        C221   1.259       .  A
V219        V220   2.085       .  T
C221        C713   1.479       .  S
C222        C650   1.473       .  S
C223        C680   1.493       .  S
C224        C983   1.499       .  S
O225       V1321   1.916       .  S
O225        C235   1.270       .  A
O226        V233   1.918       .  S
O226       C1324   1.270       .  A
O227        V233   1.881       .  S
O227        C237   1.258       .  A
O228       V1321   1.889       .  S
O228        C238   1.260       .  A
O229        V234   1.913       .  S
O229        C238   1.269       .  A
O230        V234   1.924       .  S
O230       C1325   1.272       .  A
O231        V234   1.882       .  S
O231        C236   1.259       .  A
O232        V234   1.892       .  S
O232        C235   1.261       .  A
V233       O1313   1.916       .  S
V233       O1316   1.889       .  S
V233       V1322   2.077   1_455  T
V234       V1321   2.077       .  T
C235        C630   1.503       .  S
C236       O1314   1.270       .  A
C236       C2141   1.500       .  S
C237       O1318   1.272   1_455  A
C237        C770   1.495       .  S
C238        C640   1.478       .  S
O239        V247   1.921       .  S
O239        C249   1.270       .  A
O240        V247   1.914       .  S
O240        C250   1.267       .  A
O241        V247   1.888       .  S
O241        C251   1.260       .  A
O242        V247   1.882       .  S
O242        C252   1.259       .  A
O243        V248   1.919       .  S
O243        C252   1.270       .  A
O244        V248   1.924       .  S
O244        C251   1.272       .  A
O245        V248   1.890       .  S
O245        C250   1.260       .  A
O246        V248   1.892       .  S
O246        C249   1.259       .  A
V247        V248   2.084       .  T
C249        C620   1.481       .  S
C250       C1023   1.474       .  S
C251        C613   1.503       .  S
C252        C643   1.492       .  S
O253        V261   1.923       .  S
O253        C263   1.270       .  A
O254        V261   1.917   1_554  S
O254        C264   1.270       .  A
O255        V261   1.875       .  S
O255        C265   1.257       .  A
O256        V261   1.869       .  S
O256        C266   1.256       .  A
O257        V262   1.915       .  S
O257        C266   1.270       .  A
O258        V262   1.918       .  S
O258        C265   1.270       .  A
O259        V262   1.894   1_554  S
O259        C264   1.261       .  A
O260        V262   1.889       .  S
O260        C263   1.260       .  A
V261        V262   2.086       .  T
C263        C633   1.483       .  S
C264        C993   1.483       .  S
C265        C590   1.473       .  S
C266        C600   1.480       .  S
O267       V1363   1.916       .  S
O267        C277   1.269       .  A
O268        V275   1.912   1_554  S
O268       C1366   1.269       .  A
O269        V275   1.882       .  S
O269        C279   1.259       .  A
O270       V1363   1.878       .  S
O270        C280   1.257       .  A
O271        V276   1.910       .  S
O271        C280   1.268       .  A
O272        V276   1.920       .  S
O272       C1367   1.270       .  A
O273        V276   1.885   1_554  S
O273        C278   1.259       .  A
O274        V276   1.889       .  S
O274        C277   1.261       .  A
V275       O1355   1.916       .  S
V275       O1358   1.878       .  S
V275       V1364   2.087   1_455  T
V276       V1363   2.087       .  T
C277        C623   1.488       .  S
C278       O1356   1.269       .  A
C278       C2061   1.477       .  S
C279       O1360   1.270   1_455  A
C279        C703   1.480       .  S
C280        C603   1.471       .  S
O281        V289   1.927       .  S
O281       C1379   1.272       .  A
O282        V289   1.922       .  S
O282        C292   1.271       .  A
O283        V289   1.883       .  S
O283       C1381   1.258       .  A
O284        V289   1.884       .  S
O284        C294   1.259       .  A
O285        V290   1.926       .  S
O285       C1382   1.272   1_455  A
O286        V290   1.920       .  S
O286        C293   1.272       .  A
O287        V290   1.886       .  S
O287       C1380   1.259   1_455  A
O288        V290   1.892       .  S
O288        C291   1.260       .  A
V289       V1378   2.084       .  T
V290       V1377   2.084   1_455  T
C291       O1369   1.272   1_455  A
C291        C570   1.487       .  S
C292       O1375   1.259       .  A
C292        C723   1.488       .  S
C293       O1371   1.258   1_455  A
C293        C580   1.488       .  S
C294       O1373   1.272       .  A
C294        C940   1.488       .  S
O295        V303   1.918       .  S
O295        C305   1.270       .  A
O296        V303   1.913       .  S
O296        C306   1.269       .  A
O297        V303   1.886       .  S
O297        C307   1.259       .  A
O298        V303   1.891       .  S
O298        C308   1.261       .  A
O299        V304   1.920       .  S
O299        C308   1.271       .  A
O300        V304   1.919       .  S
O300        C307   1.270       .  A
O301        V304   1.888       .  S
O301        C306   1.261       .  A
O302        V304   1.885       .  S
O302        C305   1.260       .  A
V303        V304   2.081       .  T
C305        C563   1.489       .  S
C306        C693   1.494       .  S
C307        C583   1.477       .  S
C308        C610   1.494       .  S
O309        V317   1.917       .  S
O309        C319   1.270       .  A
O310        V317   1.914       .  S
O310        C320   1.267       .  A
O311        V317   1.886       .  S
O311        C321   1.259       .  A
O312        V317   1.891       .  S
O312        C322   1.261       .  A
O313        V318   1.912       .  S
O313        C322   1.268       .  A
O314        V318   1.911       .  S
O314        C321   1.267       .  A
O315        V318   1.892       .  S
O315        C320   1.263       .  A
O316        V318   1.896       .  S
O316        C319   1.262       .  A
V317        V318   2.083       .  T
C319        C573   1.495       .  S
C320        C660   1.501       .  S
C321        C550   1.471       .  S
C322        C540   1.483       .  S
O323        V331   1.921       .  S
O323       C1421   1.270       .  A
O324        V331   1.920       .  S
O324        C334   1.270       .  A
O325        V331   1.884       .  S
O325       C1423   1.259       .  A
O326        V331   1.889       .  S
O326        C336   1.260       .  A
O327       V1420   1.916       .  S
O327        C336   1.270       .  A
O328        V332   1.914   1_455  S
O328        C335   1.269   1_455  A
O329       V1420   1.880       .  S
O329        C334   1.258       .  A
O330        V332   1.883   1_455  S
O330        C333   1.258   1_455  A
V331       V1420   2.087       .  T
V332       O1415   1.916       .  S
V332       O1417   1.880       .  S
V332       V1419   2.087       .  T
C333       O1411   1.270       .  A
C333        C560   1.477       .  S
C334        C653   1.473       .  S
C335       O1413   1.259       .  A
C335        C553   1.484   1_655  S
C336       C1030   1.487       .  S
O337        V345   1.920       .  S
O337        C347   1.270       .  A
O338        V345   1.919       .  S
O338        C348   1.270       .  A
O339        V345   1.889       .  S
O339        C349   1.260       .  A
O340        V345   1.883       .  S
O340        C350   1.259       .  A
O341        V346   1.909       .  S
O341        C350   1.268       .  A
O342        V346   1.913       .  S
O342        C349   1.269       .  A
O343        V346   1.887       .  S
O343        C348   1.259       .  A
O344        V346   1.886       .  S
O344        C347   1.260       .  A
V345        V346   2.087       .  T
C347        C520   1.484       .  S
C348        C933   1.481       .  S
C349        C543   1.484       .  S
C350        C530   1.475       .  S
O351        V359   1.907       .  S
O351        C361   1.268       .  A
O352       V1447   1.912   1_455  S
O352        C362   1.268       .  A
O353        V359   1.880       .  S
O353       C1451   1.259       .  A
O354        V359   1.886       .  S
O354        C364   1.259       .  A
O355        V360   1.918       .  S
O355       C1452   1.269   1_455  A
O356        V360   1.909       .  S
O356        C363   1.267       .  A
O357        V360   1.888       .  S
O357        C362   1.261       .  A
O358        V360   1.888       .  S
O358       C1449   1.260   1_455  A
V359       O1440   1.912       .  S
V359       V1448   2.080       .  T
V360       V1447   2.080   1_455  T
C361       O1446   1.260       .  A
C361        C533   1.488       .  S
C362        C823   1.481       .  S
C363       O1441   1.259   1_455  A
C363        C903   1.478       .  S
C364       O1443   1.269       .  A
C364        C510   1.474       .  S
O365        V373   1.931       .  S
O365       C1463   1.273   1_455  A
O366        V373   1.923       .  S
O366        C376   1.274       .  A
O367        V373   1.889       .  S
O367        C377   1.260       .  A
O368        V373   1.883       .  S
O368       C1466   1.258   1_455  A
O369        V374   1.918       .  S
O369        C378   1.271       .  A
O370        V374   1.926       .  S
O370       C1465   1.273       .  A
O371        V374   1.882       .  S
O371       C1464   1.255       .  A
O372        V374   1.884       .  S
O372        C375   1.257       .  A
V373       V1462   2.077   1_455  T
V374       V1461   2.077       .  T
C375       O1453   1.273       .  A
C375        C523   1.483       .  S
C376       O1459   1.255   1_455  A
C376        C870   1.510       .  S
C377       O1458   1.273   1_455  A
C377        C670   1.501       .  S
C378       O1456   1.258       .  A
C378        C500   1.492       .  S
O379        V387   1.917       .  S
O379        C389   1.270       .  A
O380        V387   1.912       .  S
O380        C390   1.269       .  A
O381        V387   1.884       .  S
O381        C391   1.259       .  A
O382        V387   1.880       .  S
O382        C392   1.258       .  A
O383        V388   1.916       .  S
O383        C392   1.270       .  A
O384        V388   1.921       .  S
O384        C391   1.271       .  A
O385        V388   1.880       .  S
O385        C390   1.258       .  A
O386        V388   1.882       .  S
O386        C389   1.258       .  A
V387        V388   2.086       .  T
C389        C513   1.484       .  S
C390        C853   1.474       .  S
C391        C490   1.490       .  S
C392        C503   1.476       .  S
O393        V401   1.932   1_554  S
O393        C403   1.274       .  A
O394        V401   1.924       .  S
O394        C404   1.272       .  A
O395        V401   1.872       .  S
O395        C405   1.254       .  A
O396        V401   1.874       .  S
O396        C406   1.256       .  A
O397        V402   1.921       .  S
O397        C406   1.271       .  A
O398        V402   1.913       .  S
O398        C405   1.270       .  A
O399        V402   1.883       .  S
O399        C404   1.258       .  A
O400        V402   1.881   1_554  S
O400        C403   1.257       .  A
V401        V402   2.081       .  T
C403        C473   1.510       .  S
C404        C763   1.485       .  S
C405        C480   1.489       .  S
C406        C593   1.473       .  S
O407        V415   1.905       .  S
O407        C417   1.267       .  A
O408        V415   1.909   1_655  S
O408       C1506   1.268       .  A
O409        V415   1.887   1_554  S
O409        C419   1.259   1_455  A
O410        V415   1.887       .  S
O410       C1508   1.259   1_455  A
O411        V416   1.915       .  S
O411        C420   1.268       .  A
O412       V1504   1.917   1_554  S
O412        C419   1.269       .  A
O413        V416   1.884       .  S
O413        C418   1.260       .  A
O414       V1504   1.879       .  S
O414        C417   1.258   1_655  A
V415       V1504   2.086   1_455  T
V416       O1500   1.917   1_556  S
V416       O1502   1.879       .  S
V416       V1503   2.086       .  T
C417        C483   1.475       .  S
C418       O1496   1.268       .  A
C418        C860   1.486       .  S
C419        C463   1.476   1_655  S
C420       O1498   1.259       .  A
C420        C753   1.473       .  S
O421        V429   1.921       .  S
O421       C1519   1.271       .  A
O422        V429   1.917       .  S
O422        C432   1.270       .  A
O423        V429   1.884       .  S
O423       C1521   1.259       .  A
O424        V429   1.884       .  S
O424        C434   1.259       .  A
O425       V1518   1.922       .  S
O425        C434   1.271       .  A
O426        V430   1.913       .  S
O426        C433   1.269       .  A
O427       V1518   1.884       .  S
O427        C432   1.259       .  A
O428        V430   1.890       .  S
O428        C431   1.260       .  A
V429       V1518   2.078       .  T
V430       O1513   1.922       .  S
V430       O1515   1.884       .  S
V430       V1517   2.078   1_455  T
C431       O1509   1.271   1_455  A
C431        C470   1.484       .  S
C432        C793   1.495       .  S
C433       O1511   1.259   1_455  A
C433        C453   1.486       .  S
C434       C1003   1.487       .  S
O435        V443   1.916       .  S
O435        C445   1.268       .  A
O436        V443   1.911       .  S
O436        C446   1.268       .  A
O437        V443   1.882       .  S
O437        C447   1.259       .  A
O438        V443   1.888       .  S
O438        C448   1.260       .  A
O439        V444   1.915       .  S
O439        C448   1.269       .  A
O440        V444   1.914       .  S
O440        C447   1.269       .  A
O441        V444   1.887       .  S
O441        C446   1.260       .  A
O442        V444   1.889       .  S
O442        C445   1.260       .  A
V443        V444   2.087       .  T
C445        C460   1.478       .  S
C446        C810   1.476       .  S
C447        C450   1.477       .  S
C448        C493   1.489       .  S
C449        C454   1.408       .  A
C449       C1538   1.407       .  A
C449       Br456   1.933       .  S
C450        C451   1.413       .  A
C450       C1537   1.407       .  A
C451        C452   1.408       .  A
C451       Br458   1.934       .  S
C452        C453   1.413       .  A
C452       Br457   1.934       .  S
C453       C1542   1.420   1_455  A
C454       C1541   1.420       .  A
C454       Br455   1.935       .  S
C459        C460   1.411       .  A
C459        C464   1.410       .  A
C459       Br466   1.929       .  S
C460        C461   1.411       .  A
C461        C462   1.409       .  A
C461       Br468   1.931       .  S
C462        C463   1.409       .  A
C462       Br467   1.930       .  S
C463        C464   1.409       .  A
C464      Br1553   1.929       .  S
Br465      C1552   1.929       .  S
C469        C470   1.410       .  A
C469        C474   1.414       .  A
C469       Br476   1.934       .  S
C470        C471   1.402       .  A
C471        C472   1.413       .  A
C471      Br1566   1.935   1_455  S
C472        C473   1.432       .  A
C472       Br477   1.936   1_455  S
C473        C474   1.421       .  A
C474       Br475   1.931       .  S
Br478      C1559   1.935       .  S
C479        C480   1.426   1_554  A
C479        C484   1.406       .  A
C479       Br486   1.938       .  S
C480        C481   1.415       .  A
C481        C482   1.406   1_455  A
C481       Br488   1.936   1_455  S
C482        C483   1.415   1_655  A
C482       Br487   1.937       .  S
C483        C484   1.407   1_556  A
C484       Br485   1.940       .  S
C489        C490   1.418       .  A
C489        C494   1.411       .  A
C489       Br496   1.936       .  S
C490        C491   1.413       .  A
C491        C492   1.412       .  A
C491       Br498   1.933       .  S
C492        C493   1.416       .  A
C492       Br497   1.935       .  S
C493        C494   1.413       .  A
C494       Br495   1.935       .  S
C499        C504   1.410       .  A
C499       C1588   1.425       .  A
C499       Br506   1.937   1_655  S
C500        C501   1.415       .  A
C500       C1587   1.425       .  A
C501        C502   1.409       .  A
C501       Br508   1.934       .  S
C502        C503   1.411       .  A
C502       Br507   1.934       .  S
C503       C1592   1.405       .  A
C504       C1591   1.405       .  A
C504       Br505   1.935   1_655  S
C509        C510   1.409       .  A
C509        C514   1.409       .  A
C509       Br516   1.929       .  S
C510       C1599   1.405       .  A
C511       C1598   1.405       .  A
C511       C1600   1.409       .  A
C511       Br518   1.929   1_655  S
C512        C513   1.418       .  A
C512       C1599   1.409       .  A
C512      Br1605   1.934       .  S
C513        C514   1.414       .  A
C514       Br515   1.932       .  S
Br517      C1600   1.934       .  S
C519        C520   1.413       .  A
C519       C1612   1.410       .  A
C519      Br1614   1.932       .  S
C520        C521   1.411       .  A
C521        C522   1.412       .  A
C521       Br528   1.932       .  S
C522        C523   1.413       .  A
C522       Br527   1.926       .  S
C523       C1612   1.409       .  A
C524       C1607   1.410       .  A
C524       C1611   1.409       .  A
C524       Br525   1.926       .  S
Br526      C1607   1.932       .  S
C529        C530   1.407       .  A
C529       C1622   1.408       .  A
C529      Br1624   1.935       .  S
C530        C531   1.412       .  A
C531        C532   1.407       .  A
C531       Br538   1.936       .  S
C532        C533   1.416       .  A
C532       Br537   1.936       .  S
C533       C1622   1.421       .  A
C534       C1617   1.408   1_455  A
C534       C1621   1.421   1_455  A
C534       Br535   1.936       .  S
Br536      C1617   1.935   1_455  S
C539        C540   1.414       .  A
C539        C544   1.409       .  A
C539       Br546   1.933       .  S
C540        C541   1.411       .  A
C541        C542   1.410       .  A
C541       Br548   1.933       .  S
C542        C543   1.415       .  A
C542       Br547   1.934       .  S
C543        C544   1.411       .  A
C544       Br545   1.933       .  S
C549        C550   1.410       .  A
C549        C554   1.408       .  A
C549       Br556   1.931       .  S
C550        C551   1.404   1_455  A
C551        C552   1.407       .  A
C551      Br1646   1.933       .  S
C552        C553   1.420   1_655  A
C552      Br1645   1.934       .  S
C553        C554   1.413       .  A
C554       Br555   1.932       .  S
Br557      C1640   1.934       .  S
Br558      C1639   1.933       .  S
C559        C560   1.411   1_455  A
C559        C564   1.410       .  A
C559       Br566   1.931       .  S
C560        C561   1.405       .  A
C561        C562   1.409   1_655  A
C561      Br1656   1.930       .  S
C562        C563   1.419       .  A
C562       Br567   1.933   1_455  S
C563        C564   1.415       .  A
C564       Br565   1.933       .  S
Br568      C1649   1.930       .  S
C569        C570   1.412       .  A
C569        C574   1.411       .  A
C569       Br576   1.928       .  S
C570       C1659   1.408       .  A
C571       C1658   1.408       .  A
C571       C1660   1.415       .  A
C571       Br578   1.929       .  S
C572        C573   1.419       .  A
C572       C1659   1.415       .  A
C572      Br1665   1.932       .  S
C573        C574   1.414       .  A
C574       Br575   1.933       .  S
Br577      C1660   1.932       .  S
C579        C580   1.413       .  A
C579        C584   1.409       .  A
C579       Br586   1.932       .  S
C580       C1669   1.421   1_455  A
C581        C582   1.410       .  A
C581       C1668   1.421       .  A
C581       Br588   1.935       .  S
C582       C1671   1.406       .  A
C582       Br587   1.932       .  S
C583        C584   1.410       .  A
C583       C1670   1.406       .  A
C584       Br585   1.931       .  S
C589        C590   1.414   1_554  A
C589        C594   1.405       .  A
C589       Br596   1.933       .  S
C590        C591   1.407       .  A
C591        C592   1.408   1_565  A
C591       Br598   1.930       .  S
C592        C593   1.414       .  A
C592       Br597   1.932       .  S
C593        C594   1.405   1_546  A
C594       Br595   1.925   1_565  S
C599        C600   1.411   1_554  A
C599        C604   1.407       .  A
C599      Br1694   1.933       .  S
C600        C601   1.421       .  A
C601        C602   1.404       .  A
C601       Br608   1.939       .  S
C602        C603   1.404       .  A
C602       Br607   1.934       .  S
C603        C604   1.414   1_556  A
C604      Br1693   1.934       .  S
Br605      C1692   1.934   1_455  S
Br606      C1687   1.933   1_455  S
C609        C610   1.411       .  A
C609        C614   1.414       .  A
C609       Br616   1.935       .  S
C610        C611   1.415       .  A
C611        C612   1.414       .  A
C611       Br618   1.935       .  S
C612        C613   1.419       .  A
C612       Br617   1.936       .  S
C613        C614   1.424       .  A
C614       Br615   1.937       .  S
C619        C620   1.405       .  A
C619        C624   1.409       .  A
C619       Br626   1.927       .  S
C620        C621   1.412       .  A
C621        C622   1.411       .  A
C621      Br1716   1.928       .  S
C622        C623   1.413       .  A
C622      Br1715   1.932       .  S
C623        C624   1.417       .  A
C624       Br625   1.932       .  S
Br627      C1710   1.932   1_455  S
Br628      C1709   1.928       .  S
C629        C630   1.420       .  A
C629        C634   1.411       .  A
C629      Br1724   1.936       .  S
C630        C631   1.426       .  A
C631        C632   1.414       .  A
C631       Br638   1.934       .  S
C632        C633   1.404       .  A
C632       Br637   1.931       .  S
C633        C634   1.410       .  A
C634       Br635   1.931       .  S
Br636      C1717   1.936   1_455  S
C639        C640   1.404       .  A
C639        C644   1.407       .  A
C639       Br646   1.934       .  S
C640        C641   1.412       .  A
C641        C642   1.411       .  A
C641      Br1736   1.929       .  S
C642        C643   1.415       .  A
C642      Br1735   1.933       .  S
C643        C644   1.422       .  A
C644       Br645   1.937       .  S
Br647      C1730   1.933       .  S
Br648      C1729   1.929   1_455  S
C649        C650   1.411       .  A
C649        C654   1.411       .  A
C649       Br656   1.928       .  S
C650        C651   1.408       .  A
C651        C652   1.405       .  A
C651       Br658   1.932       .  S
C652        C653   1.411       .  A
C652       Br657   1.930       .  S
C653        C654   1.409       .  A
C654      Br1743   1.929       .  S
Br655      C1742   1.929       .  S
C659        C660   1.417       .  A
C659        C664   1.412       .  A
C659       Br666   1.936       .  S
C660        C661   1.421       .  A
C661        C662   1.412       .  A
C661       Br668   1.938       .  S
C662        C663   1.415       .  A
C662       Br667   1.934       .  S
C663        C664   1.421       .  A
C664       Br665   1.940       .  S
C669        C670   1.421       .  A
C669        C674   1.413       .  A
C669       Br676   1.935       .  S
C670        C671   1.416       .  A
C671        C672   1.415       .  A
C671       Br678   1.933   1_455  S
C672        C673   1.416       .  A
C672       Br677   1.934       .  S
C673        C674   1.413       .  A
C674       Br675   1.936       .  S
C679        C680   1.422       .  A
C679        C684   1.409       .  A
C679       Br686   1.936       .  S
C680        C681   1.415       .  A
C681        C682   1.412       .  A
C681       Br688   1.932       .  S
C682        C683   1.413       .  A
C682       Br687   1.933       .  S
C683        C684   1.405       .  A
C684       Br685   1.933       .  S
C689        C690   1.424       .  A
C689        C694   1.410       .  A
C689       Br696   1.939       .  S
C690        C691   1.417       .  A
C691        C692   1.413       .  A
C691       Br698   1.936       .  S
C692        C693   1.420       .  A
C692       Br697   1.938       .  S
C693        C694   1.412       .  A
C694       Br695   1.937       .  S
C699        C700   1.410       .  A
C699        C704   1.408       .  A
C699       Br706   1.931       .  S
C700        C701   1.414   1_556  A
C701        C702   1.412       .  A
C701       Br708   1.931       .  S
C702        C703   1.410   1_554  A
C702      Br1795   1.931       .  S
C703        C704   1.412       .  A
C704       Br705   1.933       .  S
Br707      C1790   1.931       .  S
C709        C710   1.423       .  A
C709        C714   1.413       .  A
C709       Br716   1.934       .  S
C710        C711   1.416       .  A
C711        C712   1.409       .  A
C711       Br718   1.934       .  S
C712        C713   1.410       .  A
C712       Br717   1.929       .  S
C713        C714   1.405       .  A
C714       Br715   1.931       .  S
C719        C720   1.410       .  A
C719        C724   1.411       .  A
C719       Br726   1.926       .  S
C720        C721   1.406       .  A
C721        C722   1.410       .  A
C721       Br728   1.930       .  S
C722        C723   1.419       .  A
C722      Br1815   1.933       .  S
C723        C724   1.412       .  A
C724       Br725   1.931       .  S
Br727      C1810   1.933   1_455  S
C729        C730   1.415       .  A
C729        C734   1.412       .  A
C729       Br736   1.933       .  S
C730        C731   1.413       .  A
C731        C732   1.414       .  A
C731       Br738   1.930       .  S
C732        C733   1.412       .  A
C732       Br737   1.928       .  S
C733        C734   1.409       .  A
C734       Br735   1.926       .  S
C739        C740   1.430       .  A
C739        C744   1.412       .  A
C739       Br746   1.938   1_556  S
C740        C741   1.421       .  A
C741        C742   1.410       .  A
C741       Br748   1.936       .  S
C742        C743   1.410       .  A
C742       Br747   1.936       .  S
C743        C744   1.404       .  A
C744       Br745   1.936   1_556  S
C749        C750   1.412       .  A
C749        C754   1.411       .  A
C749      Br1844   1.931       .  S
C750        C751   1.417       .  A
C751        C752   1.405       .  A
C751       Br758   1.935       .  S
C752        C753   1.404       .  A
C752       Br757   1.930       .  S
C753        C754   1.411       .  A
C754      Br1843   1.928       .  S
Br755      C1842   1.928   1_455  S
Br756      C1837   1.931   1_455  S
C759        C760   1.408       .  A
C759        C764   1.409       .  A
C759       Br766   1.929       .  S
C760        C761   1.411       .  A
C761        C762   1.412       .  A
C761       Br768   1.925       .  S
C762        C763   1.411       .  A
C762       Br767   1.930       .  S
C763        C764   1.416       .  A
C764       Br765   1.934       .  S
C769        C770   1.421       .  A
C769        C774   1.411       .  A
C769       Br776   1.939       .  S
C770        C771   1.410       .  A
C771        C772   1.414   1_565  A
C771      Br1866   1.934   1_455  S
C772        C773   1.427       .  A
C772       Br777   1.939   1_455  S
C773        C774   1.414   1_545  A
C774       Br775   1.936   1_565  S
Br778      C1859   1.934       .  S
C779        C780   1.412       .  A
C779        C784   1.410       .  A
C779       Br786   1.940       .  S
C780        C781   1.424       .  A
C781        C782   1.412       .  A
C781       Br788   1.942       .  S
C782        C783   1.416       .  A
C782       Br787   1.939       .  S
C783        C784   1.426       .  A
C784       Br785   1.941       .  S
C789        C790   1.413       .  A
C789        C794   1.411       .  A
C789       Br796   1.934       .  S
C790        C791   1.406       .  A
C791        C792   1.409       .  A
C791       Br798   1.935       .  S
C792        C793   1.424       .  A
C792      Br1885   1.938       .  S
C793        C794   1.417       .  A
C794       Br795   1.934       .  S
Br797      C1880   1.938   1_455  S
C799        C800   1.413       .  A
C799        C804   1.411       .  A
C799       Br806   1.932       .  S
C800        C801   1.416       .  A
C801        C802   1.411       .  A
C801       Br808   1.932       .  S
C802        C803   1.407       .  A
C802       Br807   1.928       .  S
C803        C804   1.410       .  A
C804       Br805   1.925       .  S
C809        C810   1.411       .  A
C809        C814   1.409       .  A
C809       Br816   1.934       .  S
C810        C811   1.405       .  A
C811        C812   1.408       .  A
C811       Br818   1.934       .  S
C812        C813   1.423       .  A
C812       Br817   1.937       .  S
C813        C814   1.416       .  A
C814       Br815   1.934       .  S
C819        C820   1.415       .  A
C819        C824   1.406       .  A
C819       Br826   1.932       .  S
C820        C821   1.407       .  A
C821        C822   1.410       .  A
C821       Br828   1.932       .  S
C822        C823   1.418       .  A
C822       Br827   1.933       .  S
C823        C824   1.407       .  A
C824       Br825   1.931   1_455  S
C829        C830   1.405       .  A
C829        C834   1.410       .  A
C829       Br836   1.932       .  S
C830        C831   1.416       .  A
C831        C832   1.410       .  A
C831       Br838   1.938       .  S
C832        C833   1.417       .  A
C832       Br837   1.933       .  S
C833        C834   1.427       .  A
C834       Br835   1.938       .  S
C839        C840   1.420       .  A
C839        C844   1.407       .  A
C839       Br846   1.936       .  S
C840        C841   1.411       .  A
C841        C842   1.407       .  A
C841       Br848   1.933       .  S
C842        C843   1.413       .  A
C842       Br847   1.933       .  S
C843        C844   1.405       .  A
C844       Br845   1.934       .  S
C849        C850   1.421       .  A
C849        C854   1.408       .  A
C849       Br856   1.937       .  S
C850        C851   1.431       .  A
C851        C852   1.409       .  A
C851       Br858   1.938       .  S
C852        C853   1.402       .  A
C852       Br857   1.937       .  S
C853        C854   1.410       .  A
C854       Br855   1.937       .  S
C859        C860   1.416   1_554  A
C859        C864   1.410       .  A
C859       Br866   1.938       .  S
C860        C861   1.412       .  A
C861        C862   1.409       .  A
C861      Br1956   1.939       .  S
C862        C863   1.421       .  A
C862       Br867   1.933       .  S
C863        C864   1.415   1_556  A
C864       Br865   1.934       .  S
Br868      C1949   1.939       .  S
C869        C870   1.434   1_655  A
C869        C874   1.413   1_655  A
C869      Br1964   1.940       .  S
C870        C871   1.420       .  A
C871        C872   1.412       .  A
C871       Br878   1.937       .  S
C872        C873   1.414       .  A
C872       Br877   1.937       .  S
C873        C874   1.404       .  A
C874      Br1963   1.937   1_455  S
Br875      C1962   1.937       .  S
Br876      C1957   1.940       .  S
C879        C884   1.414       .  A
C879       C1968   1.416       .  A
C879       Br886   1.936       .  S
C880        C881   1.411   1_556  A
C880       C1967   1.416   1_455  A
C881       C1970   1.412       .  A
C881       Br888   1.935       .  S
C882        C883   1.422   1_554  A
C882       C1969   1.412       .  A
C882      Br1975   1.935       .  S
C883        C884   1.417       .  A
C884       Br885   1.935       .  S
Br887      C1970   1.935       .  S
C889        C890   1.412   1_554  A
C889        C894   1.408       .  A
C889       Br896   1.931       .  S
C890        C891   1.405       .  A
C891        C892   1.405       .  A
C891       Br898   1.932       .  S
C892        C893   1.416       .  A
C892       Br897   1.934       .  S
C893        C894   1.411   1_556  A
C894       Br895   1.932       .  S
C899        C900   1.404       .  A
C899        C904   1.403       .  A
C899       Br906   1.926       .  S
C900        C901   1.413       .  A
C901        C902   1.408       .  A
C901       Br908   1.931       .  S
C902        C903   1.411       .  A
C902       Br907   1.932       .  S
C903        C904   1.417       .  A
C904      Br1993   1.937   1_455  S
Br905      C1992   1.937       .  S
C909        C910   1.425   1_655  A
C909       C2002   1.411       .  A
C909       Br916   1.938       .  S
C910        C911   1.414       .  A
C911        C912   1.412       .  A
C911       Br918   1.935       .  S
C912       C2001   1.418   1_455  A
C912       Br917   1.936       .  S
C913        C914   1.410       .  A
C913       C2000   1.418       .  A
C914       C1997   1.411       .  A
C914       Br915   1.936       .  S
C919        C920   1.429       .  A
C919        C924   1.412       .  A
C919       Br926   1.943       .  S
C920        C921   1.421       .  A
C921        C922   1.410       .  A
C921       Br928   1.937       .  S
C922        C923   1.416       .  A
C922       Br927   1.940       .  S
C923        C924   1.409       .  A
C924       Br925   1.932       .  S
C929        C930   1.416       .  A
C929        C934   1.412       .  A
C929       Br936   1.933       .  S
C930        C931   1.427       .  A
C931        C932   1.411       .  A
C931       Br938   1.938       .  S
C932        C933   1.404       .  A
C932       Br937   1.934       .  S
C933        C934   1.412       .  A
C934       Br935   1.933       .  S
C939        C940   1.408       .  A
C939        C944   1.412       .  A
C939       Br946   1.930       .  S
C940        C941   1.418       .  A
C941        C942   1.411       .  A
C941       Br948   1.933       .  S
C942        C943   1.407       .  A
C942       Br947   1.931       .  S
C943        C944   1.419       .  A
C944       Br945   1.933       .  S
C949        C950   1.423       .  A
C949        C954   1.413       .  A
C949       Br956   1.934       .  S
C950        C951   1.417       .  A
C951        C952   1.413       .  A
C951       Br958   1.933       .  S
C952        C953   1.411       .  A
C952       Br957   1.930       .  S
C953        C954   1.405       .  A
C954       Br955   1.930       .  S
C959        C960   1.410       .  A
C959        C964   1.408       .  A
C959       Br966   1.934       .  S
C960        C961   1.418       .  A
C961        C962   1.409       .  A
C961       Br968   1.936       .  S
C962        C963   1.409       .  A
C962       Br967   1.931       .  S
C963        C964   1.418       .  A
C964       Br965   1.935       .  S
C969        C970   1.426       .  A
C969        C974   1.406       .  A
C969       Br976   1.939       .  S
C970        C971   1.418       .  A
C971       C2060   1.412   1_455  A
C971      Br2066   1.934   1_455  S
C972       C2059   1.412       .  A
C972       C2061   1.413       .  A
C972       Br977   1.935       .  S
C973       C1366   1.477       .  S
C973        C974   1.403       .  A
C973       C2060   1.413   1_455  A
C974       Br975   1.936       .  S
Br978      C2059   1.934       .  S
C979        C984   1.415       .  A
C979       C2068   1.418       .  A
C979       Br986   1.934       .  S
C980        C981   1.409       .  A
C980       C2067   1.418   1_455  A
C981       C2070   1.414       .  A
C981       Br988   1.929       .  S
C982        C983   1.421       .  A
C982       C2069   1.414       .  A
C982       Br987   1.935       .  S
C983        C984   1.413       .  A
C984       Br985   1.932       .  S
C989        C990   1.411       .  A
C989        C994   1.410       .  A
C989       Br996   1.929       .  S
C990        C991   1.409       .  A
C991        C992   1.412       .  A
C991       Br998   1.928       .  S
C992        C993   1.411       .  A
C992       Br997   1.929       .  S
C993        C994   1.412       .  A
C994       Br995   1.932       .  S
C999       C1000   1.422       .  A
C999       C1004   1.413       .  A
C999      Br1006   1.934       .  S
C1000      C1001   1.411       .  A
C1001      C1002   1.410   1_565  A
C1001     Br1008   1.933       .  S
C1002      C1003   1.417       .  A
C1002     Br1007   1.935       .  S
C1003      C1004   1.408   1_545  A
C1004     Br1005   1.932   1_565  S
C1009      C1010   1.407       .  A
C1009      C1014   1.410       .  A
C1009     Br1016   1.933       .  S
C1010      C1011   1.412       .  A
C1011      C1012   1.413       .  A
C1011     Br1018   1.928       .  S
C1012      C1013   1.415       .  A
C1012     Br1017   1.932       .  S
C1013      C1014   1.421       .  A
C1014     Br1015   1.936       .  S
C1019      C1020   1.412       .  A
C1019      C1024   1.409       .  A
C1019     Br1026   1.931       .  S
C1020      C1021   1.415       .  A
C1021      C1022   1.406       .  A
C1021     Br1028   1.933       .  S
C1022      C1023   1.404       .  A
C1022     Br1027   1.927       .  S
C1023      C1024   1.408       .  A
C1024     Br1025   1.925       .  S
C1029      C1030   1.419       .  A
C1029      C1034   1.411       .  A
C1029     Br1036   1.935       .  S
C1030      C1031   1.410       .  A
C1031      C1032   1.410       .  A
C1031     Br1038   1.933       .  S
C1032      C1033   1.416       .  A
C1032     Br1037   1.934       .  S
C1033      C1034   1.409       .  A
C1034     Br1035   1.933       .  S
C1039      C1040   1.409       .  A
C1039      C1044   1.410       .  A
C1039     Br1046   1.933       .  S
C1040      C1041   1.402       .  A
C1041      C1042   1.412       .  A
C1041     Br1048   1.934       .  S
C1042      C1043   1.429       .  A
C1042     Br1047   1.934       .  S
C1043      C1044   1.420       .  A
C1044     Br1045   1.935       .  S
C1049      C1050   1.412       .  A
C1049      C1054   1.410       .  A
C1049     Br1056   1.935       .  S
C1050      C1051   1.405   1_455  A
C1051      C2140   1.410       .  A
C1051     Br2146   1.936       .  S
C1052      C2139   1.410       .  A
C1052      C2141   1.428       .  A
C1052     Br1057   1.940       .  S
C1053      C1324   1.500       .  S
C1053      C1054   1.419       .  A
C1053      C2140   1.428   1_455  A
C1054     Br1055   1.934       .  S
Br1058     C2139   1.936       .  S
C1059      C1060   1.411       .  A
C1059      C1064   1.409   1_545  A
C1059     Br1066   1.933       .  S
C1060      C1061   1.415       .  A
C1061      C2150   1.409   1_545  A
C1061     Br1068   1.934       .  S
C1062      C1063   1.411       .  A
C1062      C2149   1.409   1_465  A
C1062     Br1067   1.933       .  S
C1063      C2152   1.415   1_455  A
C1064      C2151   1.415       .  A
C1064     Br1065   1.934       .  S
C1069      C1070   1.416       .  A
C1069      C1074   1.412       .  A
C1069     Br1076   1.933       .  S
C1070      C1071   1.423       .  A
C1071      C1072   1.412       .  A
C1071     Br1078   1.935       .  S
C1072      C1073   1.405       .  A
C1072     Br1077   1.931       .  S
C1073      C1074   1.411       .  A
C1074     Br1075   1.930       .  S
C1079      C1080   1.405       .  A
C1079      C1084   1.407       .  A
C1079     Br1086   1.933       .  S
C1080      C1081   1.411       .  A
C1081      C1082   1.408       .  A
C1081     Br1088   1.932       .  S
C1082      C1083   1.414       .  A
C1082     Br1087   1.933       .  S
C1083      C1084   1.419       .  A
C1084     Br1085   1.934       .  S
O1089      V1097   1.922       .  S
O1089      C1099   1.272       .  A
O1090      V1097   1.918       .  S
O1090      C1100   1.270       .  A
O1091      V1097   1.882       .  S
O1091      C1101   1.259       .  A
O1092      V1097   1.883       .  S
O1092      C1102   1.258       .  A
O1093      V1098   1.912       .  S
O1093      C1102   1.268       .  A
O1094      V1098   1.917       .  S
O1094      C1101   1.270       .  A
O1095      V1098   1.882       .  S
O1095      C1100   1.259       .  A
O1096      V1098   1.885       .  S
O1096      C1099   1.259       .  A
V1097      V1098   2.086       .  T
C1099      C2158   1.497       .  S
C1100      C2138   1.480       .  S
C1101      C2151   1.482       .  S
C1102      C2168   1.471       .  S
O1103      V1111   1.918       .  S
O1103      C1113   1.269       .  A
O1104      V1111   1.915       .  S
O1104      C1114   1.269       .  A
O1105      V1111   1.889       .  S
O1105      C1115   1.261       .  A
O1106      V1111   1.884       .  S
O1106      C1116   1.259       .  A
O1107      V1112   1.910       .  S
O1107      C1116   1.268       .  A
O1108      V1112   1.916       .  S
O1108      C1115   1.270       .  A
O1109      V1112   1.882       .  S
O1109      C1114   1.259       .  A
O1110      V1112   1.885       .  S
O1110      C1113   1.259       .  A
V1111      V1112   2.085       .  T
C1113      C2128   1.478       .  S
C1114      C2108   1.480       .  S
C1115      C2121   1.486       .  S
C1116      C2171   1.483       .  S
O1117      V1125   1.922       .  S
O1117      C1127   1.270       .  A
O1118      V1125   1.921       .  S
O1118      C1128   1.270       .  A
O1119      V1125   1.890       .  S
O1119      C1129   1.260       .  A
O1120      V1125   1.887       .  S
O1120      C1130   1.260       .  A
O1121      V1126   1.920       .  S
O1121      C1130   1.271       .  A
O1122      V1126   1.919       .  S
O1122      C1129   1.271       .  A
O1123      V1126   1.891       .  S
O1123      C1128   1.260       .  A
O1124      V1126   1.892       .  S
O1124      C1127   1.260       .  A
V1125      V1126   2.085       .  T
C1127      C2161   1.483       .  S
C1128      C2078   1.480       .  S
C1129      C2088   1.491       .  S
C1130      C2101   1.493       .  S
O1131      V1139   1.920       .  S
O1131      C1141   1.272       .  A
O1132      V1139   1.920       .  S
O1132      C1142   1.270       .  A
O1133      V1139   1.892       .  S
O1133      C1143   1.261       .  A
O1134      V1139   1.898       .  S
O1134      C1144   1.262       .  A
O1135      V1140   1.915       .  S
O1135      C1144   1.269       .  A
O1136      V1140   1.927       .  S
O1136      C1143   1.272       .  A
O1137      V1140   1.877       .  S
O1137      C1142   1.257       .  A
O1138      V1140   1.884       .  S
O1138      C1141   1.258       .  A
V1139      V1140   2.079       .  T
C1141      C2131   1.503       .  S
C1142      C2058   1.496       .  S
C1143      C2068   1.497       .  S
C1144      C2098   1.484       .  S
O1145      V1153   1.931       .  S
O1145      C1155   1.273       .  A
O1146      V1153   1.925       .  S
O1146      C1156   1.273       .  A
O1147      V1153   1.883       .  S
O1147      C1157   1.258       .  A
O1148      V1153   1.882       .  S
O1148      C1158   1.258       .  A
O1149      V1154   1.916       .  S
O1149      C1158   1.271       .  A
O1150      V1154   1.925       .  S
O1150      C1157   1.272       .  A
O1151      V1154   1.881       .  S
O1151      C1156   1.257       .  A
O1152      V1154   1.885       .  S
O1152      C1155   1.259       .  A
V1153      V1154   2.079       .  T
C1155      C2041   1.485       .  S
C1156      C2018   1.499       .  S
C1157      C2031   1.486       .  S
C1158      C2048   1.485       .  S
O1159      V1167   1.916       .  S
O1159      C1169   1.266       .  A
O1160      V1167   1.918       .  S
O1160      C1170   1.271       .  A
O1161      V1167   1.887       .  S
O1161      C1171   1.258       .  A
O1162      V1167   1.877       .  S
O1162      C1172   1.257       .  A
O1163      V1168   1.923       .  S
O1163      C1172   1.273       .  A
O1164      V1168   1.922       .  S
O1164      C1171   1.272       .  A
O1165      V1168   1.878       .  S
O1165      C1170   1.256       .  A
O1166      V1168   1.883       .  S
O1166      C1169   1.262       .  A
V1167      V1168   2.076       .  T
C1169      C2008   1.505       .  S
C1170      C1988   1.472       .  S
C1171      C1998   1.498       .  S
C1172      C2051   1.483       .  S
O1173      V1181   1.926       .  S
O1173      C1183   1.273       .  A
O1174      V1181   1.919   1_554  S
O1174      C1184   1.271       .  A
O1175      V1181   1.889       .  S
O1175      C1185   1.260       .  A
O1176      V1181   1.881       .  S
O1176      C1186   1.258       .  A
O1177      V1182   1.913       .  S
O1177      C1186   1.269       .  A
O1178      V1182   1.919       .  S
O1178      C1185   1.271       .  A
O1179      V1182   1.886   1_554  S
O1179      C1184   1.259       .  A
O1180      V1182   1.887       .  S
O1180      C1183   1.260       .  A
V1181      V1182   2.084       .  T
C1183      C2038   1.500       .  S
C1184      C1961   1.487       .  S
C1185      C1968   1.493       .  S
C1186      C1978   1.470       .  S
O1187      V1195   1.914       .  S
O1187      C1197   1.269       .  A
O1188      V1195   1.916       .  S
O1188      C1198   1.270       .  A
O1189      V1195   1.882   1_554  S
O1189      C1199   1.256       .  A
O1190      V1195   1.880       .  S
O1190      C1200   1.260       .  A
O1191      V1196   1.922       .  S
O1191      C1200   1.270       .  A
O1192      V1196   1.913   1_554  S
O1192      C1199   1.270       .  A
O1193      V1196   1.883       .  S
O1193      C1198   1.259       .  A
O1194      V1196   1.879       .  S
O1194      C1197   1.258       .  A
V1195      V1196   2.077       .  T
C1197      C1981   1.478       .  S
C1198      C1951   1.494       .  S
C1199      C1938   1.500       .  S
C1200      C2011   1.492       .  S
O1201      V1209   1.914       .  S
O1201      C1211   1.270       .  A
O1202      V1209   1.912       .  S
O1202      C1212   1.269       .  A
O1203      V1209   1.880       .  S
O1203      C1213   1.258       .  A
O1204      V1209   1.884       .  S
O1204      C1214   1.260       .  A
O1205      V1210   1.916       .  S
O1205      C1214   1.270       .  A
O1206      V1210   1.915       .  S
O1206      C1213   1.270       .  A
O1207      V1210   1.885       .  S
O1207      C1212   1.260       .  A
O1208      V1210   1.886       .  S
O1208      C1211   1.259       .  A
V1209      V1210   2.070       .  T
C1211      C1921   1.500       .  S
C1212      C1901   1.490       .  S
C1213      C1928   1.483       .  S
C1214      C1908   1.478       .  S
O1215      V1223   1.918       .  S
O1215      C1225   1.270       .  A
O1216      V1223   1.914       .  S
O1216      C1226   1.269       .  A
O1217      V1223   1.879       .  S
O1217      C1227   1.258       .  A
O1218      V1223   1.882       .  S
O1218      C1228   1.259       .  A
O1219      V1224   1.917       .  S
O1219      C1228   1.270       .  A
O1220      V1224   1.914       .  S
O1220      C1227   1.269       .  A
O1221      V1224   1.887       .  S
O1221      C1226   1.259       .  A
O1222      V1224   1.890       .  S
O1222      C1225   1.261       .  A
V1223      V1224   2.087       .  T
C1225      C1888   1.487       .  S
C1226      C1878   1.480       .  S
C1227      C1931   1.473       .  S
C1228      C2148   1.482       .  S
O1229      V1237   1.921       .  S
O1229      C1239   1.269       .  A
O1230      V1237   1.927       .  S
O1230      C1240   1.272       .  A
O1231      V1237   1.880       .  S
O1231      C1241   1.257       .  A
O1232      V1237   1.887       .  S
O1232      C1242   1.258       .  A
O1233      V1238   1.919       .  S
O1233      C1242   1.272       .  A
O1234      V1238   1.917       .  S
O1234      C1241   1.271       .  A
O1235      V1238   1.885       .  S
O1235      C1240   1.257       .  A
O1236      V1238   1.895       .  S
O1236      C1239   1.261       .  A
V1237      V1238   2.083       .  T
C1239      C1891   1.482       .  S
C1240      C1848   1.480       .  S
C1241      C1868   1.495       .  S
C1242      C1861   1.501       .  S
O1243      V1251   1.918       .  S
O1243      C1253   1.271       .  A
O1244      V1251   1.918       .  S
O1244      C1254   1.270       .  A
O1245      V1251   1.883       .  S
O1245      C1255   1.257       .  A
O1246      V1251   1.889       .  S
O1246      C1256   1.261       .  A
O1247      V1252   1.916       .  S
O1247      C1256   1.271       .  A
O1248      V1252   1.916       .  S
O1248      C1255   1.271       .  A
O1249      V1252   1.879       .  S
O1249      C1254   1.259       .  A
O1250      V1252   1.880       .  S
O1250      C1253   1.258       .  A
V1251      V1252   2.070       .  T
C1253      C1918   1.485       .  S
C1254      C1838   1.481       .  S
C1255      C1871   1.501       .  S
C1256      C2001   1.491       .  S
O1257      V1265   1.929   1_554  S
O1257      C1267   1.272       .  A
O1258      V1265   1.921       .  S
O1258      C1268   1.269       .  A
O1259      V1265   1.887       .  S
O1259      C1269   1.258       .  A
O1260      V1265   1.890       .  S
O1260      C1270   1.261       .  A
O1261      V1266   1.923       .  S
O1261      C1270   1.272       .  A
O1262      V1266   1.918       .  S
O1262      C1269   1.271       .  A
O1263      V1266   1.891       .  S
O1263      C1268   1.260       .  A
O1264      V1266   1.892   1_554  S
O1264      C1267   1.259       .  A
V1265      V1266   2.081       .  T
C1267      C1821   1.487       .  S
C1268      C1808   1.481       .  S
C1269      C1828   1.504       .  S
C1270      C1971   1.500       .  S
O1271      V1279   1.918   1_554  S
O1271      C1281   1.271       .  A
O1272      V1279   1.920       .  S
O1272      C1282   1.269       .  A
O1273      V1279   1.882       .  S
O1273      C1283   1.259       .  A
O1274      V1279   1.889       .  S
O1274      C1284   1.259       .  A
O1275      V1280   1.918       .  S
O1275      C1284   1.270       .  A
O1276      V1280   1.919       .  S
O1276      C1283   1.270       .  A
O1277      V1280   1.883       .  S
O1277      C1282   1.260       .  A
O1278      V1280   1.889   1_554  S
O1278      C1281   1.260       .  A
V1279      V1280   2.081       .  T
C1281      C1798   1.495       .  S
C1282      C1778   1.501       .  S
C1283      C1831   1.481       .  S
C1284      C1788   1.482       .  S
O1285      V1293   1.927       .  S
O1285      C1295   1.272       .  A
O1286      V1293   1.921       .  S
O1286      C1296   1.269       .  A
O1287      V1293   1.888       .  S
O1287      C1297   1.259       .  A
O1288      V1293   1.898       .  S
O1288      C1298   1.262       .  A
O1289      V1294   1.917       .  S
O1289      C1298   1.270       .  A
O1290      V1294   1.918       .  S
O1290      C1297   1.270       .  A
O1291      V1294   1.884       .  S
O1291      C1296   1.260       .  A
O1292      V1294   1.888       .  S
O1292      C1295   1.260       .  A
V1293      V1294   2.083       .  T
C1295      C1818   1.491       .  S
C1296      C1751   1.500       .  S
C1297      C1771   1.480       .  S
C1298      C1761   1.496       .  S
O1299      V1307   1.921       .  S
O1299      C1309   1.270       .  A
O1300      V1307   1.917       .  S
O1300      C1310   1.269       .  A
O1301      V1307   1.882       .  S
O1301      C1311   1.258       .  A
O1302      V1307   1.890       .  S
O1302      C1312   1.261       .  A
O1303      V1308   1.928       .  S
O1303      C1312   1.273       .  A
O1304      V1308   1.924       .  S
O1304      C1311   1.272       .  A
O1305      V1308   1.883       .  S
O1305      C1310   1.258       .  A
O1306      V1308   1.888       .  S
O1306      C1309   1.259       .  A
V1307      V1308   2.085       .  T
C1309      C1801   1.479       .  S
C1310      C1738   1.473       .  S
C1311      C1768   1.493       .  S
C1312      C2071   1.499       .  S
O1313      C1323   1.270   1_455  A
O1314      V1321   1.918       .  S
O1315      V1321   1.881       .  S
O1315      C1325   1.258       .  A
O1316      C1326   1.260   1_455  A
O1317      V1322   1.913       .  S
O1317      C1326   1.269       .  A
O1318      V1322   1.924       .  S
O1319      V1322   1.882       .  S
O1319      C1324   1.259   1_655  A
O1320      V1322   1.892       .  S
O1320      C1323   1.261       .  A
C1323      C1718   1.503       .  S
C1325      C1858   1.495       .  S
C1326      C1728   1.478       .  S
O1327      V1335   1.921       .  S
O1327      C1337   1.270       .  A
O1328      V1335   1.915       .  S
O1328      C1338   1.267       .  A
O1329      V1335   1.888       .  S
O1329      C1339   1.260       .  A
O1330      V1335   1.882       .  S
O1330      C1340   1.259       .  A
O1331      V1336   1.919       .  S
O1331      C1340   1.270       .  A
O1332      V1336   1.924       .  S
O1332      C1339   1.272       .  A
O1333      V1336   1.889       .  S
O1333      C1338   1.260       .  A
O1334      V1336   1.892       .  S
O1334      C1337   1.259       .  A
V1335      V1336   2.084       .  T
C1337      C1708   1.481       .  S
C1338      C2111   1.474       .  S
C1339      C1701   1.503       .  S
C1340      C1731   1.492       .  S
O1341      V1349   1.923       .  S
O1341      C1351   1.270       .  A
O1342      V1349   1.917   1_554  S
O1342      C1352   1.270       .  A
O1343      V1349   1.875       .  S
O1343      C1353   1.257       .  A
O1344      V1349   1.869       .  S
O1344      C1354   1.256       .  A
O1345      V1350   1.915       .  S
O1345      C1354   1.270       .  A
O1346      V1350   1.918       .  S
O1346      C1353   1.270       .  A
O1347      V1350   1.894   1_554  S
O1347      C1352   1.261       .  A
O1348      V1350   1.889       .  S
O1348      C1351   1.260       .  A
V1349      V1350   2.086       .  T
C1351      C1721   1.483       .  S
C1352      C2081   1.483       .  S
C1353      C1678   1.473       .  S
C1354      C1688   1.480       .  S
O1355      C1365   1.269   1_455  A
O1356      V1363   1.912   1_554  S
O1357      V1363   1.882       .  S
O1357      C1367   1.259       .  A
O1358      C1368   1.257   1_455  A
O1359      V1364   1.910       .  S
O1359      C1368   1.268       .  A
O1360      V1364   1.920       .  S
O1361      V1364   1.885   1_554  S
O1361      C1366   1.259   1_655  A
O1362      V1364   1.889       .  S
O1362      C1365   1.261       .  A
C1365      C1711   1.488       .  S
C1367      C1791   1.480       .  S
C1368      C1691   1.471       .  S
O1369      V1377   1.927       .  S
O1370      V1377   1.922       .  S
O1370      C1380   1.271       .  A
O1371      V1377   1.883       .  S
O1372      V1377   1.884       .  S
O1372      C1382   1.259       .  A
O1373      V1378   1.926       .  S
O1374      V1378   1.920       .  S
O1374      C1381   1.272       .  A
O1375      V1378   1.886       .  S
O1376      V1378   1.892       .  S
O1376      C1379   1.260       .  A
C1379      C1658   1.487       .  S
C1380      C1811   1.488       .  S
C1381      C1668   1.488       .  S
C1382      C2028   1.488       .  S
O1383      V1391   1.918       .  S
O1383      C1393   1.270       .  A
O1384      V1391   1.913       .  S
O1384      C1394   1.269       .  A
O1385      V1391   1.886       .  S
O1385      C1395   1.259       .  A
O1386      V1391   1.891       .  S
O1386      C1396   1.261       .  A
O1387      V1392   1.920       .  S
O1387      C1396   1.271       .  A
O1388      V1392   1.919       .  S
O1388      C1395   1.270       .  A
O1389      V1392   1.888       .  S
O1389      C1394   1.261       .  A
O1390      V1392   1.885       .  S
O1390      C1393   1.260       .  A
V1391      V1392   2.081       .  T
C1393      C1651   1.489       .  S
C1394      C1781   1.494       .  S
C1395      C1671   1.477       .  S
C1396      C1698   1.494       .  S
O1397      V1405   1.917       .  S
O1397      C1407   1.270       .  A
O1398      V1405   1.914       .  S
O1398      C1408   1.267       .  A
O1399      V1405   1.885       .  S
O1399      C1409   1.259       .  A
O1400      V1405   1.891       .  S
O1400      C1410   1.261       .  A
O1401      V1406   1.912       .  S
O1401      C1410   1.268       .  A
O1402      V1406   1.911       .  S
O1402      C1409   1.267       .  A
O1403      V1406   1.892       .  S
O1403      C1408   1.263       .  A
O1404      V1406   1.896       .  S
O1404      C1407   1.262       .  A
V1405      V1406   2.083       .  T
C1407      C1661   1.495       .  S
C1408      C1748   1.501       .  S
C1409      C1638   1.471       .  S
C1410      C1628   1.483       .  S
O1411      V1419   1.921       .  S
O1412      V1419   1.920       .  S
O1412      C1422   1.270       .  A
O1413      V1419   1.884       .  S
O1414      V1419   1.889       .  S
O1414      C1424   1.260       .  A
O1415      C1424   1.270       .  A
O1416      V1420   1.914       .  S
O1416      C1423   1.269       .  A
O1417      C1422   1.258       .  A
O1418      V1420   1.883       .  S
O1418      C1421   1.258       .  A
C1421      C1648   1.477       .  S
C1422      C1741   1.473       .  S
C1423      C1641   1.484       .  S
C1424      C2118   1.487       .  S
O1425      V1433   1.920       .  S
O1425      C1435   1.270       .  A
O1426      V1433   1.919       .  S
O1426      C1436   1.270       .  A
O1427      V1433   1.889       .  S
O1427      C1437   1.260       .  A
O1428      V1433   1.883       .  S
O1428      C1438   1.259       .  A
O1429      V1434   1.909       .  S
O1429      C1438   1.268       .  A
O1430      V1434   1.913       .  S
O1430      C1437   1.269       .  A
O1431      V1434   1.887       .  S
O1431      C1436   1.259       .  A
O1432      V1434   1.886       .  S
O1432      C1435   1.260       .  A
V1433      V1434   2.087       .  T
C1435      C1608   1.484       .  S
C1436      C2021   1.481       .  S
C1437      C1631   1.484       .  S
C1438      C1618   1.475       .  S
O1439      V1447   1.907       .  S
O1439      C1449   1.268       .  A
O1440      C1450   1.268       .  A
O1441      V1447   1.880       .  S
O1442      V1447   1.886       .  S
O1442      C1452   1.259       .  A
O1443      V1448   1.918       .  S
O1444      V1448   1.909       .  S
O1444      C1451   1.267       .  A
O1445      V1448   1.888       .  S
O1445      C1450   1.261       .  A
O1446      V1448   1.888       .  S
C1449      C1621   1.488       .  S
C1450      C1911   1.481       .  S
C1451      C1991   1.478       .  S
C1452      C1598   1.474       .  S
O1453      V1461   1.931       .  S
O1454      V1461   1.923       .  S
O1454      C1464   1.274       .  A
O1455      V1461   1.889       .  S
O1455      C1465   1.260       .  A
O1456      V1461   1.883       .  S
O1457      V1462   1.918       .  S
O1457      C1466   1.271       .  A
O1458      V1462   1.926       .  S
O1459      V1462   1.882       .  S
O1460      V1462   1.884       .  S
O1460      C1463   1.257       .  A
C1463      C1611   1.483       .  S
C1464      C1958   1.510       .  S
C1465      C1758   1.501       .  S
C1466      C1588   1.492       .  S
O1467      V1475   1.917       .  S
O1467      C1477   1.270       .  A
O1468      V1475   1.912       .  S
O1468      C1478   1.269       .  A
O1469      V1475   1.884       .  S
O1469      C1479   1.259       .  A
O1470      V1475   1.880       .  S
O1470      C1480   1.258       .  A
O1471      V1476   1.916       .  S
O1471      C1480   1.270       .  A
O1472      V1476   1.921       .  S
O1472      C1479   1.271       .  A
O1473      V1476   1.880       .  S
O1473      C1478   1.258       .  A
O1474      V1476   1.882       .  S
O1474      C1477   1.258       .  A
V1475      V1476   2.086       .  T
C1477      C1601   1.484       .  S
C1478      C1941   1.474       .  S
C1479      C1578   1.490       .  S
C1480      C1591   1.476       .  S
O1481      V1489   1.932   1_554  S
O1481      C1491   1.274       .  A
O1482      V1489   1.924       .  S
O1482      C1492   1.272       .  A
O1483      V1489   1.872       .  S
O1483      C1493   1.254       .  A
O1484      V1489   1.874       .  S
O1484      C1494   1.256       .  A
O1485      V1490   1.921       .  S
O1485      C1494   1.271       .  A
O1486      V1490   1.913       .  S
O1486      C1493   1.270       .  A
O1487      V1490   1.883       .  S
O1487      C1492   1.258       .  A
O1488      V1490   1.881   1_554  S
O1488      C1491   1.257       .  A
V1489      V1490   2.081       .  T
C1491      C1561   1.510       .  S
C1492      C1851   1.485       .  S
C1493      C1568   1.489       .  S
C1494      C1681   1.473       .  S
O1495      V1503   1.905       .  S
O1495      C1505   1.267       .  A
O1496      V1503   1.909       .  S
O1497      V1503   1.887   1_554  S
O1497      C1507   1.259       .  A
O1498      V1503   1.887       .  S
O1499      V1504   1.915       .  S
O1499      C1508   1.268       .  A
O1500      C1507   1.269       .  A
O1501      V1504   1.884       .  S
O1501      C1506   1.260       .  A
O1502      C1505   1.258       .  A
C1505      C1571   1.475       .  S
C1506      C1948   1.486       .  S
C1507      C1551   1.476       .  S
C1508      C1841   1.473       .  S
O1509      V1517   1.921       .  S
O1510      V1517   1.917       .  S
O1510      C1520   1.270       .  A
O1511      V1517   1.884       .  S
O1512      V1517   1.884       .  S
O1512      C1522   1.259       .  A
O1513      C1522   1.271   1_455  A
O1514      V1518   1.913       .  S
O1514      C1521   1.269       .  A
O1515      C1520   1.259   1_455  A
O1516      V1518   1.890       .  S
O1516      C1519   1.260       .  A
C1519      C1558   1.484       .  S
C1520      C1881   1.495       .  S
C1521      C1541   1.486       .  S
C1522      C2091   1.487       .  S
O1523      V1531   1.916       .  S
O1523      C1533   1.268       .  A
O1524      V1531   1.911       .  S
O1524      C1534   1.268       .  A
O1525      V1531   1.882       .  S
O1525      C1535   1.259       .  A
O1526      V1531   1.888       .  S
O1526      C1536   1.260       .  A
O1527      V1532   1.915       .  S
O1527      C1536   1.269       .  A
O1528      V1532   1.914       .  S
O1528      C1535   1.269       .  A
O1529      V1532   1.887       .  S
O1529      C1534   1.260       .  A
O1530      V1532   1.889       .  S
O1530      C1533   1.260       .  A
V1531      V1532   2.087       .  T
C1533      C1548   1.478       .  S
C1534      C1898   1.476       .  S
C1535      C1538   1.477       .  S
C1536      C1581   1.489       .  S
C1537      C1542   1.408   1_455  A
C1537     Br1544   1.933   1_455  S
C1538      C1539   1.413       .  A
C1539      C1540   1.408       .  A
C1539     Br1546   1.934       .  S
C1540      C1541   1.413       .  A
C1540     Br1545   1.934       .  S
C1542     Br1543   1.935       .  S
C1547      C1548   1.411       .  A
C1547      C1552   1.410       .  A
C1547     Br1554   1.929       .  S
C1548      C1549   1.411       .  A
C1549      C1550   1.409       .  A
C1549     Br1556   1.931       .  S
C1550      C1551   1.409       .  A
C1550     Br1555   1.930       .  S
C1551      C1552   1.409       .  A
C1557      C1558   1.410       .  A
C1557      C1562   1.414       .  A
C1557     Br1564   1.934       .  S
C1558      C1559   1.402       .  A
C1559      C1560   1.413       .  A
C1560      C1561   1.432       .  A
C1560     Br1565   1.936       .  S
C1561      C1562   1.421       .  A
C1562     Br1563   1.931       .  S
C1567      C1568   1.426   1_554  A
C1567      C1572   1.406       .  A
C1567     Br1574   1.938       .  S
C1568      C1569   1.415       .  A
C1569      C1570   1.406       .  A
C1569     Br1576   1.936       .  S
C1570      C1571   1.415       .  A
C1570     Br1575   1.937       .  S
C1571      C1572   1.407   1_556  A
C1572     Br1573   1.940       .  S
C1577      C1578   1.418       .  A
C1577      C1582   1.411       .  A
C1577     Br1584   1.936       .  S
C1578      C1579   1.413       .  A
C1579      C1580   1.412       .  A
C1579     Br1586   1.933       .  S
C1580      C1581   1.416       .  A
C1580     Br1585   1.935       .  S
C1581      C1582   1.413       .  A
C1582     Br1583   1.935       .  S
C1587      C1592   1.410       .  A
C1587     Br1594   1.937       .  S
C1588      C1589   1.415       .  A
C1589      C1590   1.409       .  A
C1589     Br1596   1.934       .  S
C1590      C1591   1.411       .  A
C1590     Br1595   1.934       .  S
C1592     Br1593   1.935       .  S
C1597      C1598   1.409       .  A
C1597      C1602   1.409       .  A
C1597     Br1604   1.929       .  S
C1599     Br1606   1.929       .  S
C1600      C1601   1.418       .  A
C1601      C1602   1.414       .  A
C1602     Br1603   1.932       .  S
C1607      C1608   1.413       .  A
C1608      C1609   1.411       .  A
C1609      C1610   1.412       .  A
C1609     Br1616   1.932       .  S
C1610      C1611   1.413       .  A
C1610     Br1615   1.926       .  S
C1612     Br1613   1.926       .  S
C1617      C1618   1.407       .  A
C1618      C1619   1.412       .  A
C1619      C1620   1.407       .  A
C1619     Br1626   1.936       .  S
C1620      C1621   1.416       .  A
C1620     Br1625   1.936       .  S
C1622     Br1623   1.936       .  S
C1627      C1628   1.414       .  A
C1627      C1632   1.409       .  A
C1627     Br1634   1.933       .  S
C1628      C1629   1.411       .  A
C1629      C1630   1.410       .  A
C1629     Br1636   1.933       .  S
C1630      C1631   1.415       .  A
C1630     Br1635   1.934       .  S
C1631      C1632   1.411       .  A
C1632     Br1633   1.933       .  S
C1637      C1638   1.410       .  A
C1637      C1642   1.408       .  A
C1637     Br1644   1.931       .  S
C1638      C1639   1.404       .  A
C1639      C1640   1.407       .  A
C1640      C1641   1.420       .  A
C1641      C1642   1.413       .  A
C1642     Br1643   1.932       .  S
C1647      C1648   1.411       .  A
C1647      C1652   1.410       .  A
C1647     Br1654   1.931       .  S
C1648      C1649   1.405       .  A
C1649      C1650   1.409       .  A
C1650      C1651   1.419       .  A
C1650     Br1655   1.933       .  S
C1651      C1652   1.415       .  A
C1652     Br1653   1.933       .  S
C1657      C1658   1.412       .  A
C1657      C1662   1.411       .  A
C1657     Br1664   1.928       .  S
C1659     Br1666   1.929   1_455  S
C1660      C1661   1.419       .  A
C1661      C1662   1.414       .  A
C1662     Br1663   1.933       .  S
C1667      C1668   1.413       .  A
C1667      C1672   1.409       .  A
C1667     Br1674   1.932       .  S
C1669      C1670   1.410   1_655  A
C1669     Br1676   1.935       .  S
C1670     Br1675   1.932   1_455  S
C1671      C1672   1.410       .  A
C1672     Br1673   1.931       .  S
C1677      C1678   1.414   1_554  A
C1677      C1682   1.405       .  A
C1677     Br1684   1.933       .  S
C1678      C1679   1.407       .  A
C1679      C1680   1.408   1_565  A
C1679     Br1686   1.930       .  S
C1680      C1681   1.414       .  A
C1680     Br1685   1.932       .  S
C1681      C1682   1.405   1_546  A
C1682     Br1683   1.925   1_565  S
C1687      C1688   1.411   1_554  A
C1687      C1692   1.407       .  A
C1688      C1689   1.421       .  A
C1689      C1690   1.404       .  A
C1689     Br1696   1.939       .  S
C1690      C1691   1.404       .  A
C1690     Br1695   1.934       .  S
C1691      C1692   1.414   1_556  A
C1697      C1698   1.411       .  A
C1697      C1702   1.414       .  A
C1697     Br1704   1.935       .  S
C1698      C1699   1.415       .  A
C1699      C1700   1.414       .  A
C1699     Br1706   1.935       .  S
C1700      C1701   1.419       .  A
C1700     Br1705   1.936       .  S
C1701      C1702   1.424       .  A
C1702     Br1703   1.937       .  S
C1707      C1708   1.405       .  A
C1707      C1712   1.409       .  A
C1707     Br1714   1.927       .  S
C1708      C1709   1.412       .  A
C1709      C1710   1.411       .  A
C1710      C1711   1.413       .  A
C1711      C1712   1.417       .  A
C1712     Br1713   1.932       .  S
C1717      C1718   1.420       .  A
C1717      C1722   1.411       .  A
C1718      C1719   1.426       .  A
C1719      C1720   1.414       .  A
C1719     Br1726   1.934       .  S
C1720      C1721   1.404       .  A
C1720     Br1725   1.931       .  S
C1721      C1722   1.410       .  A
C1722     Br1723   1.931       .  S
C1727      C1728   1.404       .  A
C1727      C1732   1.407       .  A
C1727     Br1734   1.934       .  S
C1728      C1729   1.412       .  A
C1729      C1730   1.411       .  A
C1730      C1731   1.415       .  A
C1731      C1732   1.422       .  A
C1732     Br1733   1.937       .  S
C1737      C1738   1.411       .  A
C1737      C1742   1.411       .  A
C1737     Br1744   1.928       .  S
C1738      C1739   1.408       .  A
C1739      C1740   1.405       .  A
C1739     Br1746   1.932       .  S
C1740      C1741   1.411       .  A
C1740     Br1745   1.930       .  S
C1741      C1742   1.409       .  A
C1747      C1748   1.417       .  A
C1747      C1752   1.412       .  A
C1747     Br1754   1.936       .  S
C1748      C1749   1.421       .  A
C1749      C1750   1.412       .  A
C1749     Br1756   1.938       .  S
C1750      C1751   1.415       .  A
C1750     Br1755   1.934       .  S
C1751      C1752   1.421       .  A
C1752     Br1753   1.940       .  S
C1757      C1758   1.421       .  A
C1757      C1762   1.413       .  A
C1757     Br1764   1.935       .  S
C1758      C1759   1.416       .  A
C1759      C1760   1.415       .  A
C1759     Br1766   1.933       .  S
C1760      C1761   1.416       .  A
C1760     Br1765   1.934       .  S
C1761      C1762   1.413       .  A
C1762     Br1763   1.936       .  S
C1767      C1768   1.422       .  A
C1767      C1772   1.409       .  A
C1767     Br1774   1.936       .  S
C1768      C1769   1.415       .  A
C1769      C1770   1.412       .  A
C1769     Br1776   1.932       .  S
C1770      C1771   1.413       .  A
C1770     Br1775   1.933       .  S
C1771      C1772   1.405       .  A
C1772     Br1773   1.933       .  S
C1777      C1778   1.424       .  A
C1777      C1782   1.410       .  A
C1777     Br1784   1.939       .  S
C1778      C1779   1.417       .  A
C1779      C1780   1.413       .  A
C1779     Br1786   1.936       .  S
C1780      C1781   1.420       .  A
C1780     Br1785   1.938       .  S
C1781      C1782   1.412       .  A
C1782     Br1783   1.937       .  S
C1787      C1788   1.410       .  A
C1787      C1792   1.408       .  A
C1787     Br1794   1.931       .  S
C1788      C1789   1.414   1_556  A
C1789      C1790   1.412       .  A
C1789     Br1796   1.931       .  S
C1790      C1791   1.410   1_554  A
C1791      C1792   1.412       .  A
C1792     Br1793   1.933       .  S
C1797      C1798   1.423       .  A
C1797      C1802   1.413       .  A
C1797     Br1804   1.934       .  S
C1798      C1799   1.416       .  A
C1799      C1800   1.409       .  A
C1799     Br1806   1.934       .  S
C1800      C1801   1.410       .  A
C1800     Br1805   1.929       .  S
C1801      C1802   1.405       .  A
C1802     Br1803   1.931       .  S
C1807      C1808   1.410       .  A
C1807      C1812   1.411       .  A
C1807     Br1814   1.926       .  S
C1808      C1809   1.406       .  A
C1809      C1810   1.410       .  A
C1809     Br1816   1.930   1_655  S
C1810      C1811   1.419       .  A
C1811      C1812   1.412       .  A
C1812     Br1813   1.931       .  S
C1817      C1818   1.415       .  A
C1817      C1822   1.412       .  A
C1817     Br1824   1.933       .  S
C1818      C1819   1.413       .  A
C1819      C1820   1.414       .  A
C1819     Br1826   1.930       .  S
C1820      C1821   1.412       .  A
C1820     Br1825   1.928       .  S
C1821      C1822   1.409       .  A
C1822     Br1823   1.926       .  S
C1827      C1828   1.430       .  A
C1827      C1832   1.412       .  A
C1827     Br1834   1.938   1_556  S
C1828      C1829   1.421       .  A
C1829      C1830   1.410       .  A
C1829     Br1836   1.936       .  S
C1830      C1831   1.410       .  A
C1830     Br1835   1.936       .  S
C1831      C1832   1.404       .  A
C1832     Br1833   1.936   1_556  S
C1837      C1838   1.412       .  A
C1837      C1842   1.411       .  A
C1838      C1839   1.417       .  A
C1839      C1840   1.405       .  A
C1839     Br1846   1.935       .  S
C1840      C1841   1.404       .  A
C1840     Br1845   1.930       .  S
C1841      C1842   1.411       .  A
C1847      C1848   1.408       .  A
C1847      C1852   1.409       .  A
C1847     Br1854   1.929       .  S
C1848      C1849   1.411       .  A
C1849      C1850   1.412       .  A
C1849     Br1856   1.925       .  S
C1850      C1851   1.411       .  A
C1850     Br1855   1.930       .  S
C1851      C1852   1.416       .  A
C1852     Br1853   1.934       .  S
C1857      C1858   1.421       .  A
C1857      C1862   1.411       .  A
C1857     Br1864   1.939       .  S
C1858      C1859   1.410       .  A
C1859      C1860   1.414   1_565  A
C1860      C1861   1.427       .  A
C1860     Br1865   1.939       .  S
C1861      C1862   1.414   1_545  A
C1862     Br1863   1.936   1_565  S
C1867      C1868   1.412       .  A
C1867      C1872   1.410       .  A
C1867     Br1874   1.940       .  S
C1868      C1869   1.424       .  A
C1869      C1870   1.412       .  A
C1869     Br1876   1.942       .  S
C1870      C1871   1.416       .  A
C1870     Br1875   1.939       .  S
C1871      C1872   1.426       .  A
C1872     Br1873   1.941       .  S
C1877      C1878   1.413       .  A
C1877      C1882   1.411       .  A
C1877     Br1884   1.934       .  S
C1878      C1879   1.406       .  A
C1879      C1880   1.409       .  A
C1879     Br1886   1.935   1_655  S
C1880      C1881   1.424       .  A
C1881      C1882   1.417       .  A
C1882     Br1883   1.934       .  S
C1887      C1888   1.413       .  A
C1887      C1892   1.411       .  A
C1887     Br1894   1.932       .  S
C1888      C1889   1.416       .  A
C1889      C1890   1.411       .  A
C1889     Br1896   1.932       .  S
C1890      C1891   1.407       .  A
C1890     Br1895   1.928       .  S
C1891      C1892   1.410       .  A
C1892     Br1893   1.925       .  S
C1897      C1898   1.411       .  A
C1897      C1902   1.409       .  A
C1897     Br1904   1.934       .  S
C1898      C1899   1.405       .  A
C1899      C1900   1.408       .  A
C1899     Br1906   1.934       .  S
C1900      C1901   1.423       .  A
C1900     Br1905   1.937       .  S
C1901      C1902   1.416       .  A
C1902     Br1903   1.934       .  S
C1907      C1908   1.415       .  A
C1907      C1912   1.406       .  A
C1907     Br1914   1.932       .  S
C1908      C1909   1.407       .  A
C1909      C1910   1.410       .  A
C1909     Br1916   1.932       .  S
C1910      C1911   1.418       .  A
C1910     Br1915   1.933       .  S
C1911      C1912   1.407       .  A
C1912     Br1913   1.931       .  S
C1917      C1918   1.405       .  A
C1917      C1922   1.410       .  A
C1917     Br1924   1.932       .  S
C1918      C1919   1.416       .  A
C1919      C1920   1.410       .  A
C1919     Br1926   1.938       .  S
C1920      C1921   1.417       .  A
C1920     Br1925   1.933       .  S
C1921      C1922   1.427       .  A
C1922     Br1923   1.938       .  S
C1927      C1928   1.420       .  A
C1927      C1932   1.407       .  A
C1927     Br1934   1.936       .  S
C1928      C1929   1.411       .  A
C1929      C1930   1.407       .  A
C1929     Br1936   1.933       .  S
C1930      C1931   1.413       .  A
C1930     Br1935   1.933       .  S
C1931      C1932   1.405       .  A
C1932     Br1933   1.934       .  S
C1937      C1938   1.421       .  A
C1937      C1942   1.408       .  A
C1937     Br1944   1.937       .  S
C1938      C1939   1.431       .  A
C1939      C1940   1.409       .  A
C1939     Br1946   1.938       .  S
C1940      C1941   1.402       .  A
C1940     Br1945   1.937       .  S
C1941      C1942   1.410       .  A
C1942     Br1943   1.937       .  S
C1947      C1948   1.416   1_554  A
C1947      C1952   1.410       .  A
C1947     Br1954   1.938       .  S
C1948      C1949   1.412       .  A
C1949      C1950   1.409       .  A
C1950      C1951   1.421       .  A
C1950     Br1955   1.933       .  S
C1951      C1952   1.415   1_556  A
C1952     Br1953   1.934       .  S
C1957      C1958   1.434       .  A
C1957      C1962   1.413       .  A
C1958      C1959   1.420       .  A
C1959      C1960   1.412       .  A
C1959     Br1966   1.937       .  S
C1960      C1961   1.414       .  A
C1960     Br1965   1.937       .  S
C1961      C1962   1.404       .  A
C1967      C1972   1.414       .  A
C1967     Br1974   1.936       .  S
C1968      C1969   1.411   1_556  A
C1969     Br1976   1.935       .  S
C1970      C1971   1.422   1_454  A
C1971      C1972   1.417       .  A
C1972     Br1973   1.935       .  S
C1977      C1978   1.412   1_554  A
C1977      C1982   1.408       .  A
C1977     Br1984   1.931       .  S
C1978      C1979   1.405       .  A
C1979      C1980   1.405       .  A
C1979     Br1986   1.932       .  S
C1980      C1981   1.416       .  A
C1980     Br1985   1.934       .  S
C1981      C1982   1.411   1_556  A
C1982     Br1983   1.932       .  S
C1987      C1988   1.404       .  A
C1987      C1992   1.403       .  A
C1987     Br1994   1.926       .  S
C1988      C1989   1.413       .  A
C1989      C1990   1.408       .  A
C1989     Br1996   1.931       .  S
C1990      C1991   1.411       .  A
C1990     Br1995   1.932       .  S
C1991      C1992   1.417       .  A
C1997      C1998   1.425       .  A
C1997     Br2004   1.938       .  S
C1998      C1999   1.414       .  A
C1999      C2000   1.412       .  A
C1999     Br2006   1.935       .  S
C2000     Br2005   1.936       .  S
C2001      C2002   1.410       .  A
C2002     Br2003   1.936       .  S
C2007      C2008   1.429       .  A
C2007      C2012   1.412       .  A
C2007     Br2014   1.943       .  S
C2008      C2009   1.421       .  A
C2009      C2010   1.410       .  A
C2009     Br2016   1.937       .  S
C2010      C2011   1.416       .  A
C2010     Br2015   1.940       .  S
C2011      C2012   1.409       .  A
C2012     Br2013   1.932       .  S
C2017      C2018   1.416       .  A
C2017      C2022   1.412       .  A
C2017     Br2024   1.933       .  S
C2018      C2019   1.427       .  A
C2019      C2020   1.411       .  A
C2019     Br2026   1.938       .  S
C2020      C2021   1.404       .  A
C2020     Br2025   1.934       .  S
C2021      C2022   1.412       .  A
C2022     Br2023   1.933       .  S
C2027      C2028   1.408       .  A
C2027      C2032   1.412       .  A
C2027     Br2034   1.930   1_655  S
C2028      C2029   1.418       .  A
C2029      C2030   1.411       .  A
C2029     Br2036   1.933       .  S
C2030      C2031   1.407       .  A
C2030     Br2035   1.931       .  S
C2031      C2032   1.419       .  A
C2032     Br2033   1.933       .  S
C2037      C2038   1.423       .  A
C2037      C2042   1.413       .  A
C2037     Br2044   1.934       .  S
C2038      C2039   1.417       .  A
C2039      C2040   1.413       .  A
C2039     Br2046   1.933       .  S
C2040      C2041   1.411       .  A
C2040     Br2045   1.930       .  S
C2041      C2042   1.405       .  A
C2042     Br2043   1.930       .  S
C2047      C2048   1.410       .  A
C2047      C2052   1.408       .  A
C2047     Br2054   1.934       .  S
C2048      C2049   1.418       .  A
C2049      C2050   1.409       .  A
C2049     Br2056   1.936       .  S
C2050      C2051   1.409       .  A
C2050     Br2055   1.931       .  S
C2051      C2052   1.418       .  A
C2052     Br2053   1.935       .  S
C2057      C2058   1.426       .  A
C2057      C2062   1.406       .  A
C2057     Br2064   1.939       .  S
C2058      C2059   1.418       .  A
C2060     Br2065   1.935       .  S
C2061      C2062   1.403       .  A
C2062     Br2063   1.936       .  S
C2067      C2072   1.415       .  A
C2067     Br2074   1.934       .  S
C2068      C2069   1.409       .  A
C2069     Br2076   1.929       .  S
C2070      C2071   1.421   1_455  A
C2070     Br2075   1.935       .  S
C2071      C2072   1.413       .  A
C2072     Br2073   1.932       .  S
C2077      C2078   1.411       .  A
C2077      C2082   1.410       .  A
C2077     Br2084   1.929       .  S
C2078      C2079   1.409       .  A
C2079      C2080   1.412       .  A
C2079     Br2086   1.928       .  S
C2080      C2081   1.411       .  A
C2080     Br2085   1.929       .  S
C2081      C2082   1.412       .  A
C2082     Br2083   1.932       .  S
C2087      C2088   1.422       .  A
C2087      C2092   1.413       .  A
C2087     Br2094   1.934       .  S
C2088      C2089   1.411       .  A
C2089      C2090   1.410   1_565  A
C2089     Br2096   1.933       .  S
C2090      C2091   1.417       .  A
C2090     Br2095   1.935       .  S
C2091      C2092   1.408   1_545  A
C2092     Br2093   1.932   1_665  S
C2097      C2098   1.407       .  A
C2097      C2102   1.410       .  A
C2097     Br2104   1.933       .  S
C2098      C2099   1.412       .  A
C2099      C2100   1.413       .  A
C2099     Br2106   1.928       .  S
C2100      C2101   1.415       .  A
C2100     Br2105   1.932       .  S
C2101      C2102   1.421       .  A
C2102     Br2103   1.936       .  S
C2107      C2108   1.412       .  A
C2107      C2112   1.409       .  A
C2107     Br2114   1.931       .  S
C2108      C2109   1.415       .  A
C2109      C2110   1.406       .  A
C2109     Br2116   1.933       .  S
C2110      C2111   1.404       .  A
C2110     Br2115   1.927       .  S
C2111      C2112   1.408       .  A
C2112     Br2113   1.925       .  S
C2117      C2118   1.419       .  A
C2117      C2122   1.411       .  A
C2117     Br2124   1.935       .  S
C2118      C2119   1.410       .  A
C2119      C2120   1.410       .  A
C2119     Br2126   1.933       .  S
C2120      C2121   1.416       .  A
C2120     Br2125   1.934       .  S
C2121      C2122   1.409       .  A
C2122     Br2123   1.933       .  S
C2127      C2128   1.409       .  A
C2127      C2132   1.410       .  A
C2127     Br2134   1.933       .  S
C2128      C2129   1.402       .  A
C2129      C2130   1.412       .  A
C2129     Br2136   1.934       .  S
C2130      C2131   1.429       .  A
C2130     Br2135   1.934       .  S
C2131      C2132   1.420       .  A
C2132     Br2133   1.935       .  S
C2137      C2138   1.412       .  A
C2137      C2142   1.410       .  A
C2137     Br2144   1.935       .  S
C2138      C2139   1.405       .  A
C2140     Br2145   1.940       .  S
C2141      C2142   1.419       .  A
C2142     Br2143   1.934       .  S
C2147      C2148   1.411       .  A
C2147      C2152   1.409   1_545  A
C2147     Br2154   1.933       .  S
C2148      C2149   1.415       .  A
C2149     Br2156   1.934       .  S
C2150      C2151   1.411       .  A
C2150     Br2155   1.933       .  S
C2152     Br2153   1.934       .  S
C2157      C2158   1.416       .  A
C2157      C2162   1.412       .  A
C2157     Br2164   1.933       .  S
C2158      C2159   1.423       .  A
C2159      C2160   1.412       .  A
C2159     Br2166   1.935       .  S
C2160      C2161   1.405       .  A
C2160     Br2165   1.931       .  S
C2161      C2162   1.411       .  A
C2162     Br2163   1.930       .  S
C2167      C2168   1.405       .  A
C2167      C2172   1.407       .  A
C2167     Br2174   1.934       .  S
C2168      C2169   1.411       .  A
C2169      C2170   1.408       .  A
C2169     Br2176   1.932       .  S
C2170      C2171   1.414       .  A
C2170     Br2175   1.933       .  S
C2171      C2172   1.419       .  A
C2172     Br2173   1.934       .  S
