geometry optimzed in LAMMPS
_audit_creation_date              2020-12-01 
_audit_creation_method            'lammps2cif' 
_symmetry_space_group_name_H-M    'P1' 
_symmetry_Int_Tables_number       1 
_symmetry_cell_setting            triclinic 
loop_ 
_symmetry_equiv_pos_as_xyz 
  x,y,z 
_cell_length_a                    42.50603835 
_cell_length_b                    32.76305258360005 
_cell_length_c                    43.60529845796731 
_cell_angle_alpha                 89.79166373109757 
_cell_angle_beta                  109.80058621861 
_cell_angle_gamma                 89.18101623729387 
loop_ 
_atom_site_label 
_atom_site_type_symbol 
_atom_site_fract_x 
_atom_site_fract_y 
_atom_site_fract_z 
_atom_site_charge 
O1          O  0.43009541  0.97369439  0.00325048    -0.82000
C2          C  0.32309209  0.87656656  0.42936002     0.97400
O3          O  0.35268199  0.87133469  0.42869025    -0.71100
O4          O  0.37894882  0.93830818  0.41608620    -0.74700
Al5        Al  0.39420597  0.90118469  0.45109280     1.49000
C6          C  0.38384709  0.97595545  0.41600802     0.92600
O7          O  0.34041896  0.99921119  0.46554099    -0.80900
O8          O  0.37466723  0.91878196  0.03651591    -0.74500
Al9        Al  0.38595297  0.98267410  0.48389363     1.90100
O10         O  0.32290930  0.95329901  0.49245163    -0.73600
O11         O  0.36578755  0.85542623  0.99805585    -0.73400
O12         O  0.31836349  0.89560911  0.45237582    -0.79100
O13         O  0.41118344  0.85710052  0.48245949    -0.77300
O14         O  0.37673392  0.92996590  0.47620557    -1.13400
O15         O  0.43840752  0.92886327  0.46728071    -0.72600
C16         C  0.45004188  0.95720825  0.48807064     0.98100
C17         C  0.31880949  0.98626525  0.47679857     0.94500
Al18       Al  0.34872175  0.90672027  0.49318849     1.55600
O19         O  0.39002790  0.99595915  0.44205362    -0.77200
C20         C  0.39245216  0.83746087  0.49437763     0.98700
C21         C  0.38043871  0.95495590  0.04635497     0.93600
O22         O  0.38159583  0.98345015  0.02697778    -0.82500
O23         O  0.36076811  0.53184689  0.46447550    -0.82000
C24         C  0.43236629  0.62547821  0.07155338     0.97400
O25         O  0.42957135  0.63433512  0.04255996    -0.71100
O26         O  0.44530576  0.56647405  0.02299927    -0.74700
Al27       Al  0.41239315  0.60060560  0.50563971     1.49000
C28         C  0.44510461  0.53094719  0.01262852     0.92600
O29         O  0.39112278  0.50297299  0.05363224    -0.80900
O30         O  0.31860791  0.58569818  0.01683727    -0.74500
Al31       Al  0.37586568  0.52137285  0.00864977     1.90100
O32         O  0.36405935  0.55095702  0.06977945    -0.73600
O33         O  0.36209419  0.65279609  0.02678156    -0.73400
O34         O  0.40817490  0.60864933  0.07724243    -0.79100
O35         O  0.37984138  0.64056823  0.48588129    -0.77300
O36         O  0.38290861  0.57395767  0.01896517    -1.13400
O37         O  0.39968371  0.57444024  0.46374579    -0.72600
C38         C  0.37719741  0.54959039  0.44908200     0.98100
C39         C  0.37776171  0.51608425  0.07371617     0.94500
Al40       Al  0.36439137  0.59795782  0.04529218     1.55600
O41         O  0.41920447  0.50979134  0.00638157    -0.77200
C42         C  0.36870286  0.66667285  0.00242594     0.98700
C43         C  0.30958677  0.54912344  0.00799195     0.93600
O44         O  0.33095526  0.52235661  0.00727360    -0.82500
O45         O  0.09386357  0.97557885  0.24117841    -0.82000
C46         C  0.20286014  0.88023952  0.32153135     0.97400
O47         O  0.17297762  0.87698483  0.32149632    -0.71100
O48         O  0.14756518  0.94749322  0.33068523    -0.74700
Al49       Al  0.13208521  0.90875335  0.29764042     1.49000
C50         C  0.14011466  0.98488456  0.32799229     0.92600
O51         O  0.18461025  0.00312747  0.27719557    -0.80900
O52         O  0.15250126  0.91485698  0.21250140    -0.74500
Al53       Al  0.13964296  0.98616993  0.25994737     1.90100
O54         O  0.20445340  0.95309840  0.25535695    -0.73600
O55         O  0.16002783  0.85551395  0.25534617    -0.73400
O56         O  0.20849350  0.89850736  0.29864485    -0.79100
O57         O  0.11477287  0.86468806  0.26804205    -0.77300
O58         O  0.14991348  0.93408570  0.27132907    -1.13400
O59         O  0.08814814  0.93822155  0.28047113    -0.72600
C60         C  0.07633696  0.96491729  0.25781968     0.98100
C61         C  0.20661824  0.98842323  0.26690698     0.94500
Al62       Al  0.17880002  0.90758270  0.25675914     1.55600
O63         O  0.13441991  0.00319723  0.30093823    -0.77200
C64         C  0.13347921  0.84198548  0.25791175     0.98700
C65         C  0.14526137  0.94981885  0.19966630     0.93600
O66         O  0.14230361  0.98031589  0.21649905    -0.82500
O67         O  0.13495150  0.53084168  0.28042031    -0.82000
C68         C  0.06514377  0.62749602  0.17346266     0.97400
O69         O  0.06845320  0.63858251  0.20222621    -0.71100
O70         O  0.05117497  0.57523299  0.22539542    -0.74700
Al71       Al  0.08824314  0.60714429  0.24197010     1.49000
C72         C  0.04990414  0.53847827  0.23213923     0.92600
O73         O  0.10162598  0.50620409  0.18989662    -0.80900
O74         O  0.17727725  0.58169847  0.22996894    -0.74500
Al75       Al  0.11792938  0.52205438  0.23517199     1.90100
O76         O  0.13328186  0.54913904  0.17579395    -0.73600
O77         O  0.13628574  0.65126648  0.21682069    -0.73400
O78         O  0.08937702  0.60931260  0.16811763    -0.79100
O79         O  0.12266481  0.64484474  0.26028303    -0.77300
O80         O  0.11322679  0.57519791  0.22612125    -1.13400
O81         O  0.10116735  0.58023830  0.28428225    -0.72600
C82         C  0.12059454  0.55037146  0.29688441     0.98100
C83         C  0.11709907  0.51660101  0.17096096     0.94500
Al84       Al  0.13273731  0.59659371  0.19992903     1.55600
O85         O  0.07453073  0.51456377  0.23728924    -0.77200
C86         C  0.13232684  0.66697136  0.24169308     0.98700
C87         C  0.18518585  0.54453524  0.23907870     0.93600
O88         O  0.16285300  0.51870243  0.23700062    -0.82500
O89         O  0.32824988  0.47244332  0.23925999    -0.82000
C90         C  0.44273393  0.38569884  0.31740404     0.97400
O91         O  0.41352987  0.37953877  0.31860841    -0.71100
O92         O  0.38372347  0.44652988  0.32816961    -0.74700
Al93       Al  0.37016645  0.40716430  0.29532346     1.49000
C94         C  0.37558550  0.48368259  0.32559998     0.92600
O95         O  0.41742504  0.50535929  0.27300102    -0.80900
O96         O  0.38548975  0.41626955  0.20801109    -0.74500
Al97       Al  0.37311634  0.48593442  0.25694868     1.90100
O98         O  0.43659362  0.45759504  0.24850950    -0.73600
O99         O  0.39943123  0.35742786  0.25209311    -0.73400
O100        O  0.44603976  0.40361437  0.29319686    -0.79100
O101        O  0.35497109  0.36140078  0.26654555    -0.77300
O102        O  0.38560795  0.43441093  0.26806174    -1.13400
O103        O  0.32451928  0.43328315  0.27851337    -0.72600
C104        C  0.31160386  0.46020393  0.25616683     0.98100
C105        C  0.43821355  0.49261463  0.26036728     0.94500
Al106      Al  0.41435464  0.41052219  0.25191122     1.55600
O107        O  0.36869041  0.50199578  0.29842891    -0.77200
C108        C  0.37454231  0.34101040  0.25582961     0.98700
C109        C  0.37657931  0.45115682  0.19536074     0.93600
O110        O  0.37409476  0.48116006  0.21288521    -0.82500
O111        O  0.39613242  0.03172992  0.27803304    -0.82000
C112        C  0.33049536  0.12880038  0.17060034     0.97400
O113        O  0.33153304  0.13966302  0.19876968    -0.71100
O114        O  0.31241103  0.07364288  0.21814418    -0.74700
Al115      Al  0.34872541  0.10658006  0.23814233     1.49000
C116        C  0.31153541  0.03746169  0.22678246     0.92600
O117        O  0.36737229  0.00872657  0.18720385    -0.80900
O118        O  0.44128450  0.08528975  0.23218342    -0.74500
Al119      Al  0.38133769  0.02329900  0.23275548     1.90100
O120        O  0.40052772  0.05244840  0.17605780    -0.73600
O121        O  0.39870430  0.15390456  0.21795719    -0.73400
O122        O  0.35570234  0.11127391  0.16677479    -0.79100
O123        O  0.38208245  0.14397375  0.25929497    -0.77300
O124        O  0.37620632  0.07639115  0.22419954    -1.13400
O125        O  0.35933212  0.07841384  0.27989088    -0.72600
C126        C  0.38007268  0.05011291  0.29355969     0.98100
C127        C  0.38391323  0.02016224  0.16943694     0.94500
Al128      Al  0.39768402  0.09941796  0.20035221     1.55600
O129        O  0.33695515  0.01435170  0.23296315    -0.77200
C130        C  0.39150446  0.16804249  0.24178947     0.98700
C131        C  0.44945796  0.04797335  0.24038630     0.93600
O132        O  0.42726158  0.02135321  0.23677829    -0.82500
O133        O  0.12437544  0.03175520  0.46572355    -0.82000
C134        C  0.19720478  0.11933444  0.07469924     0.97400
O135        O  0.19303709  0.13136932  0.04597026    -0.71100
O136        O  0.20804481  0.06788058  0.02011946    -0.74700
Al137      Al  0.17259519  0.10379848  0.50599347     1.49000
C138        C  0.20838304  0.03222724  0.01020647     0.92600
O139        O  0.15853041  0.99827431  0.05565336    -0.80900
O140        O  0.08324934  0.07926318  0.02285509    -0.74500
Al141      Al  0.14087427  0.01845297  0.01108239     1.90100
O142        O  0.13063758  0.04320734  0.07368539    -0.73600
O143        O  0.12544738  0.14807990  0.03457672    -0.73400
O144        O  0.17369584  0.10163401  0.08092877    -0.79100
O145        O  0.13861261  0.14332819  0.48882461    -0.77300
O146        O  0.14685384  0.07082599  0.02218313    -1.13400
O147        O  0.15871591  0.07984701  0.46327609    -0.72600
C148        C  0.13822430  0.05243950  0.44948882     0.98100
C149        C  0.14525796  0.00902451  0.07645269     0.94500
Al150      Al  0.12939281  0.09178697  0.05051665     1.55600
O151        O  0.18357304  0.00961671  0.00610365    -0.77200
C152        C  0.12960384  0.16433797  0.00981643     0.98700
C153        C  0.07484556  0.04264608  0.01338075     0.93600
O154        O  0.09671200  0.01696941  0.01185648    -0.82500
O155        O  0.16757095  0.47657035  0.00852121    -0.82000
C156        C  0.06243922  0.38258816  0.42881433     0.97400
O157        O  0.09263330  0.37793131  0.42983011    -0.71100
O158        O  0.11885744  0.44588053  0.42060118    -0.74700
Al159      Al  0.13324668  0.40774474  0.45461094     1.49000
C160        C  0.12356087  0.48366133  0.42126995     0.92600
O161        O  0.07709985  0.50327635  0.46788787    -0.80900
O162        O  0.11034379  0.41679154  0.03830589    -0.74500
Al163      Al  0.12255485  0.48760320  0.48802498     1.90100
O164        O  0.05842037  0.45572032  0.49248595    -0.73600
O165        O  0.10453692  0.35503153  0.99897021    -0.73400
O166        O  0.05608593  0.39951966  0.45185600    -0.79100
O167        O  0.14961626  0.36316101  0.48543772    -0.77300
O168        O  0.11409047  0.43482876  0.47894720    -1.13400
O169        O  0.17682120  0.43567421  0.47303558    -0.72600
C170        C  0.18756053  0.46360812  0.49436740     0.98100
C171        C  0.05432766  0.48862737  0.47668043     0.94500
Al172      Al  0.08503138  0.40979117  0.49364638     1.55600
O173        O  0.12875889  0.50297369  0.44747830    -0.77200
C174        C  0.13057378  0.34202685  0.49593506     0.98700
C175        C  0.11561352  0.45254795  0.04916110     0.93600
O176        O  0.11748131  0.48211158  0.03098784    -0.82500
C177        C  0.11971864  0.23465450  0.02730717    -0.12500
C178        C  0.13007967  0.21121255  0.50418441     0.04500
C179        C  0.14584616  0.23045265  0.48405147    -0.07800
C180        C  0.14851299  0.27312695  0.48376155    -0.08500
C181        C  0.13609443  0.29767995  0.50338251    -0.03100
C182        C  0.12327070  0.27716889  0.02734963     0.03800
N183        N  0.11217348  0.30097833  0.04930604     0.66300
H184        H  0.10865897  0.22108135  0.04387135     0.15200
H185        H  0.15907555  0.28718272  0.46698338     0.14900
N186        N  0.15964821  0.20730762  0.46382963     0.74000
O187        O  0.08170426  0.30148903  0.04678812    -0.39500
O188        O  0.13326810  0.31843322  0.07304283    -0.39400
O189        O  0.14362544  0.20500631  0.43370762    -0.40100
O190        O  0.19015600  0.19686943  0.47453289    -0.40200
C191        C  0.28727842  0.09391437  0.12653353    -0.12500
C192        C  0.29792118  0.13024137  0.14338251     0.04500
C193        C  0.27505000  0.16341897  0.13778459    -0.07800
C194        C  0.24208914  0.15954448  0.11571816    -0.08500
C195        C  0.23107609  0.12239435  0.09991218    -0.03100
C196        C  0.25424127  0.08922214  0.10553148     0.03000
N197        N  0.24460453  0.05006963  0.09097444     0.66300
H198        H  0.30429171  0.06780707  0.13150495     0.15200
H199        H  0.22506316  0.18558335  0.11093675     0.14900
N200        N  0.28532704  0.20155366  0.15347933     0.74000
O201        O  0.21765263  0.03457997  0.09095942    -0.39500
O202        O  0.26556043  0.02781443  0.08381334    -0.39400
O203        O  0.30058088  0.22648108  0.14165226    -0.40100
O204        O  0.27555713  0.21245879  0.17652732    -0.40200
C205        C  0.47257554  0.36566578  0.37575976    -0.12500
C206        C  0.47395490  0.37394211  0.34469797     0.04500
C207        C  0.00607886  0.37671198  0.34103052    -0.07800
C208        C  0.03518799  0.37582409  0.36869620    -0.08500
C209        C  0.03336214  0.37118667  0.39993499    -0.03100
C210        C  0.00175602  0.36377924  0.40300302     0.03800
N211        N  0.49935565  0.35337299  0.43420900     0.66300
H212        H  0.44858082  0.36262109  0.37908360     0.15200
H213        H  0.05919321  0.38074472  0.36580456     0.14900
N214        N  0.00958872  0.38057790  0.30960047     0.74000
O215        O  0.48086486  0.37477722  0.44537441    -0.39500
O216        O  0.01075973  0.32109596  0.44814937    -0.39400
O217        O  0.02705375  0.40867816  0.30412412    -0.40100
O218        O  0.99844145  0.35320414  0.28856992    -0.40200
C219        C  0.38057683  0.28212302  0.22330565    -0.12500
C220        C  0.37173464  0.29674632  0.24956549     0.04500
C221        C  0.36987917  0.26889131  0.27349667    -0.07800
C222        C  0.37763866  0.22743160  0.27122321    -0.08500
C223        C  0.38770751  0.21289964  0.24548709    -0.03100
C224        C  0.38860970  0.24096457  0.22107416     0.03800
N225        N  0.39779559  0.22846764  0.19384442     0.66300
H226        H  0.38280135  0.30334123  0.20502899     0.15200
H227        H  0.37604183  0.20657980  0.28996561     0.14900
N228        N  0.36265210  0.28265820  0.30148242     0.74000
O229        O  0.37536904  0.22031509  0.16716176    -0.39500
O230        O  0.42770923  0.23163033  0.19495675    -0.39400
O231        O  0.33418818  0.27665171  0.30355533    -0.40100
O232        O  0.38594602  0.29540848  0.32594541    -0.40200
C233        C  0.25898393  0.46997116  0.27000695    -0.12500
C234        C  0.27893069  0.48214775  0.25188028     0.04500
C235        C  0.26883525  0.51844049  0.23234504    -0.07800
C236        C  0.24033377  0.54093548  0.23181566    -0.08500
C237        C  0.22002445  0.52789575  0.24888769    -0.03100
C238        C  0.22989698  0.49219547  0.26865824     0.03800
N239        N  0.21032817  0.47772809  0.28729281     0.66300
H240        H  0.26588526  0.44292952  0.28531400     0.15200
H241        H  0.23262175  0.56727117  0.21572344     0.14900
N242        N  0.28554136  0.53233386  0.21095692     0.74000
O243        O  0.19905859  0.44198706  0.28309573    -0.39500
O244        O  0.20742510  0.49891879  0.31032482    -0.39400
O245        O  0.26849389  0.53648741  0.18112947    -0.40100
O246        O  0.31162188  0.55310228  0.22251617    -0.40200
C247        C  0.02276575  0.52637286  0.27175542    -0.12500
C248        C  0.02078311  0.52617605  0.23899128     0.04500
C249        C  0.98993219  0.52504708  0.21383441    -0.07800
C250        C  0.46063917  0.52254648  0.22257308    -0.08500
C251        C  0.46327237  0.51804499  0.25543168    -0.03100
C252        C  0.49436742  0.52071928  0.28029056     0.03800
N253        N  0.49743570  0.51739722  0.31394194     0.66300
H254        H  0.04670555  0.52964533  0.29099283     0.15200
H255        H  0.43662493  0.51904091  0.20343579     0.14900
N256        N  0.98802498  0.52364678  0.18035115     0.74000
O257        O  0.99189751  0.48453723  0.32489686    -0.39500
O258        O  0.50885941  0.54680493  0.33286630    -0.39400
O259        O  0.00707622  0.49976412  0.17181877    -0.40100
O260        O  0.96581628  0.54398151  0.15888046    -0.40200
C261        C  0.12995664  0.47793994  0.36745541    -0.12500
C262        C  0.12454305  0.50351846  0.39091577     0.04500
C263        C  0.11999366  0.54582539  0.38419669    -0.07800
C264        C  0.11954857  0.56116972  0.35376391    -0.08500
C265        C  0.12400962  0.53494422  0.32997547    -0.03100
C266        C  0.12925992  0.49271526  0.33731309     0.03800
N267        N  0.13108175  0.46343177  0.31363874     0.66300
H268        H  0.13372709  0.44537520  0.37198885     0.15200
H269        H  0.11525172  0.59353427  0.34856131     0.14900
N270        N  0.11484241  0.57331307  0.40745416     0.74000
O271        O  0.15514725  0.43804307  0.32098522    -0.39500
O272        O  0.10499915  0.45587953  0.28993629    -0.39400
O273        O  0.13886771  0.59402590  0.42524214    -0.40100
O274        O  0.08566419  0.58019989  0.40774429    -0.40200
C275        C  0.14639375  0.47698164  0.10416395    -0.12500
C276        C  0.11716436  0.46088309  0.08263235     0.04500
C277        C  0.08848896  0.45795431  0.09197265    -0.07800
C278        C  0.08898457  0.47390652  0.12203538    -0.08500
C279        C  0.11803715  0.49168176  0.14309108    -0.03100
C280        C  0.14733678  0.49130501  0.13450197     0.03800
N281        N  0.17835911  0.50560161  0.15647564     0.66300
H282        H  0.16853683  0.47883323  0.09722644     0.15200
H283        H  0.06632063  0.47417449  0.12817366     0.14900
N284        N  0.05811337  0.44166976  0.07017619     0.74000
O285        O  0.19457678  0.48377306  0.18071607    -0.39500
O286        O  0.19208228  0.53600359  0.14876125    -0.39400
O287        O  0.05616089  0.40394481  0.06423283    -0.40100
O288        O  0.03224962  0.46408699  0.05957879    -0.40200
C289        C  0.12490894  0.72936002  0.27177675    -0.12500
C290        C  0.13395600  0.71212552  0.24629352     0.04500
C291        C  0.13915084  0.73876765  0.22285804    -0.07800
C292        C  0.13570715  0.78102860  0.22556188    -0.08500
C293        C  0.12718617  0.79808434  0.25122045    -0.03100
C294        C  0.12132866  0.77180229  0.27428317     0.03800
N295        N  0.11356901  0.78780841  0.30138252     0.66300
H296        H  0.12008228  0.70980304  0.28972165     0.15200
H297        H  0.14113085  0.80090058  0.20810547     0.14900
N298        N  0.14824880  0.72367477  0.19622833     0.74000
O299        O  0.08457505  0.80169258  0.29730537    -0.39500
O300        O  0.13443317  0.78401438  0.32984382    -0.39400
O301        O  0.12816256  0.72771077  0.16742817    -0.40100
O302        O  0.17774833  0.71104628  0.20109994    -0.40200
C303        C  0.14834364  0.04480071  0.36569265    -0.12500
C304        C  0.13578852  0.00567711  0.35651300     0.04500
C305        C  0.11973821  0.98542581  0.37566126    -0.07800
C306        C  0.11821454  0.00316597  0.40418758    -0.08500
C307        C  0.13328066  0.04069766  0.41514011    -0.03100
C308        C  0.14751317  0.06226034  0.39491359     0.03800
N309        N  0.16175524  0.10150063  0.40389192     0.66300
H310        H  0.16014120  0.06108989  0.35093556     0.15200
H311        H  0.10686060  0.98593020  0.41884325     0.14900
N312        N  0.10550894  0.94605995  0.36695423     0.74000
O313        O  0.19302206  0.10467107  0.41688289    -0.39500
O314        O  0.14386516  0.13313068  0.39395096    -0.39400
O315        O  0.12174890  0.91465117  0.38079758    -0.40100
O316        O  0.07471523  0.94337132  0.35106227    -0.40200
C317        C  0.16945177  0.94530924  0.15487092    -0.12500
C318        C  0.14243772  0.95610209  0.16526250     0.04500
C319        C  0.11518312  0.97798569  0.14394234    -0.07800
C320        C  0.11575383  0.98995150  0.11348195    -0.08500
C321        C  0.14384808  0.98302059  0.10397608    -0.03100
C322        C  0.17055366  0.95866727  0.12434192     0.03800
N323        N  0.19936898  0.94914262  0.11546575     0.66300
H324        H  0.19057913  0.92839893  0.17131508     0.15200
H325        H  0.09452911  0.00743139  0.09773057     0.14900
N326        N  0.08759695  0.99077541  0.15356123     0.74000
O327        O  0.22823237  0.94993295  0.13668407    -0.39500
O328        O  0.19577554  0.93399866  0.08793680    -0.39400
O329        O  0.07552331  0.02639046  0.14652824    -0.40100
O330        O  0.07374229  0.96584251  0.16688094    -0.40200
C331        C  0.50474372  0.04444827  0.23314967    -0.12500
C332        C  0.48460427  0.03230539  0.25076451     0.04500
C333        C  0.49499691  0.99800889  0.27192032    -0.07800
C334        C  0.02539715  0.97978877  0.27362498    -0.08500
C335        C  0.04398086  0.98804248  0.25314440    -0.03100
C336        C  0.03319068  0.02196220  0.23114622     0.03800
N337        N  0.04926976  0.03225121  0.20830910     0.66300
H338        H  0.49680847  0.07014736  0.21641646     0.15200
H339        H  0.03328216  0.95517820  0.29131443     0.14900
N340        N  0.47632821  0.98603155  0.29223045     0.74000
O341        O  0.03204928  0.03231849  0.17837992    -0.39500
O342        O  0.07557488  0.05297074  0.21773701    -0.39400
O343        O  0.46637133  0.94984696  0.29164547    -0.40100
O344        O  0.47200321  0.01080267  0.31260369    -0.40200
C345        C  0.22575091  0.03343649  0.23348552    -0.12500
C346        C  0.23313985  0.01293403  0.26338622     0.04500
C347        C  0.26617974  0.00152243  0.28124663    -0.07800
C348        C  0.29104137  0.00700453  0.26753024    -0.08500
C349        C  0.28348691  0.02576279  0.23679432    -0.03100
C350        C  0.25080448  0.04058700  0.22027844     0.03800
N351        N  0.24238481  0.06090994  0.18938724     0.66300
H352        H  0.20001040  0.04099773  0.21915739     0.15200
H353        H  0.31654264  0.99799296  0.28149140     0.14900
N354        N  0.27432746  0.98331265  0.31291124     0.74000
O355        O  0.22618803  0.04217625  0.16380873    -0.39500
O356        O  0.24486572  0.09918788  0.18833217    -0.39400
O357        O  0.28584808  0.94728896  0.31804264    -0.40100
O358        O  0.27133002  0.00394880  0.33617969    -0.40200
C359        C  0.99544352  0.62859867  0.08992792    -0.12500
C360        C  0.46554719  0.63181362  0.09769411     0.04500
C361        C  0.46936661  0.63730937  0.13080510    -0.07800
C362        C  0.00250186  0.63859954  0.15522612    -0.08500
C363        C  0.03169991  0.63306417  0.14688839    -0.03100
C364        C  0.02763289  0.62883265  0.11354239     0.03800
N365        N  0.05589553  0.62398719  0.10311155     0.66300
H366        H  0.99332886  0.62407952  0.06471169     0.15200
H367        H  0.00465167  0.64228996  0.18053139     0.14900
N368        N  0.44080226  0.64444716  0.14046455     0.74000
O369        O  0.06617925  0.58860439  0.09953636    -0.39500
O370        O  0.06674743  0.65443657  0.09221541    -0.39400
O371        O  0.43140873  0.61742772  0.15600001    -0.40100
O372        O  0.42666928  0.67916245  0.13590752    -0.40200
C373        C  0.39604074  0.44375498  0.14730333    -0.12500
C374        C  0.37221052  0.45877962  0.16063089     0.04500
C375        C  0.34816723  0.48743707  0.14261063    -0.07800
C376        C  0.34991274  0.50330508  0.11366220    -0.08500
C377        C  0.37557448  0.49185741  0.10177380    -0.03100
C378        C  0.39790125  0.46012350  0.11792926     0.03800
N379        N  0.42337732  0.44568477  0.10591349     0.66300
H380        H  0.41480282  0.42161306  0.16090908     0.15200
H381        H  0.33111200  0.52580402  0.10068927     0.14900
N382        N  0.32217262  0.50176275  0.15385713     0.74000
O383        O  0.44737856  0.46835264  0.10667500    -0.39500
O384        O  0.42298946  0.40933597  0.09634167    -0.39400
O385        O  0.31571720  0.53954257  0.15326501    -0.40100
O386        O  0.30234080  0.47658242  0.15910732    -0.40200
C387        C  0.38830112  0.54122236  0.36558880    -0.12500
C388        C  0.37231397  0.50430213  0.35463139     0.04500
C389        C  0.35468893  0.48546646  0.37294923    -0.07800
C390        C  0.35459767  0.50247554  0.40230320    -0.08500
C391        C  0.37261168  0.53782528  0.41476381    -0.03100
C392        C  0.38900464  0.55781230  0.39557132     0.03800
N393        N  0.40730592  0.59429727  0.40645772     0.66300
H394        H  0.40175234  0.55615618  0.35168584     0.15200
H395        H  0.34165457  0.48651377  0.41618417     0.14900
N396        N  0.33694836  0.44854564  0.36221042     0.74000
O397        O  0.43806343  0.59188529  0.42297921    -0.39500
O398        O  0.39471278  0.62814070  0.39405798    -0.39400
O399        O  0.35050477  0.41479131  0.37385364    -0.40100
O400        O  0.30590406  0.45029228  0.34691645    -0.40200
C401        C  0.25867843  0.53893632  0.02380602    -0.12500
C402        C  0.27480281  0.53374339  0.00082260     0.04500
C403        C  0.26396966  0.50446486  0.47763024    -0.07800
C404        C  0.23633043  0.48046608  0.47645861    -0.08500
C405        C  0.22063178  0.48410645  0.49997451    -0.03100
C406        C  0.23137954  0.51450251  0.02337422     0.03800
N407        N  0.21719077  0.52031560  0.04850247     0.66300
H408        H  0.26871512  0.56017917  0.04359842     0.15200
H409        H  0.22651722  0.45964916  0.45632886     0.14900
N410        N  0.27879270  0.49914087  0.45292055     0.74000
O411        O  0.22169325  0.49353336  0.07051704    -0.39500
O412        O  0.20339757  0.55399730  0.05076417    -0.39400
O413        O  0.29193108  0.46523091  0.45004923    -0.40100
O414        O  0.27571853  0.52689661  0.43191714    -0.40200
C415        C  0.00138925  0.54322080  0.01162962    -0.12500
C416        C  0.47292827  0.51840017  0.00195179     0.04500
C417        C  0.47037388  0.48946086  0.47668244    -0.07800
C418        C  0.99477159  0.48703158  0.46214490    -0.08500
C419        C  0.02361227  0.51062293  0.47281140    -0.03100
C420        C  0.02595307  0.53879375  0.99749455     0.03800
N421        N  0.05557115  0.56250581  0.00925831     0.66300
H422        H  0.50423322  0.56747780  0.02842222     0.15200
H423        H  0.99355229  0.46187906  0.44569198     0.14900
N424        N  0.44315350  0.46153627  0.46727289     0.74000
O425        O  0.06040580  0.59085470  0.99178486    -0.39500
O426        O  0.07526221  0.55771276  0.03814060    -0.39400
O427        O  0.42698949  0.45629570  0.43743919    -0.40100
O428        O  0.43989319  0.43636577  0.48793786    -0.40200
C429        C  0.29345072  0.85829076  0.37099477    -0.12500
C430        C  0.29269460  0.86306346  0.40262259     0.04500
C431        C  0.26124623  0.86201834  0.40740308    -0.07800
C432        C  0.23154619  0.86450797  0.38051519    -0.08500
C433        C  0.23244085  0.86480965  0.34877134    -0.03100
C434        C  0.26356709  0.85739259  0.34406211     0.03800
N435        N  0.26509554  0.84942440  0.31214405     0.66300
H436        H  0.31729911  0.85681406  0.36711660     0.15200
H437        H  0.20784793  0.86800192  0.38452376     0.14900
N438        N  0.25917911  0.85945126  0.43949562     0.74000
O439        O  0.29054383  0.85909914  0.30518527    -0.39500
O440        O  0.24306030  0.82788311  0.29237007    -0.39400
O441        O  0.24001429  0.88334200  0.44782609    -0.40100
O442        O  0.27440745  0.83100699  0.45861384    -0.40200
C443        C  0.39983278  0.76655795  0.47804275    -0.12500
C444        C  0.39608920  0.79308732  0.50170233     0.04500
C445        C  0.38383476  0.77761571  0.02635785    -0.07800
C446        C  0.37334976  0.73708288  0.02489263    -0.08500
C447        C  0.37707177  0.70991943  0.50063076    -0.03100
C448        C  0.39054558  0.72545147  0.47726411     0.03800
N449        N  0.39429929  0.70029294  0.45199595     0.66300
H450        H  0.40767774  0.77842405  0.45858701     0.15200
H451        H  0.36586039  0.72539682  0.04461339     0.14900
N452        N  0.38314803  0.80237846  0.05311540     0.74000
O453        O  0.36959777  0.69488925  0.42640896    -0.39500
O454        O  0.42309722  0.68858833  0.45314630    -0.39400
O455        O  0.35631595  0.80718923  0.05913853    -0.40100
O456        O  0.40987935  0.81720736  0.07207020    -0.40200
C457        C  0.49260292  0.00762875  0.02041057    -0.12500
C458        C  0.48328311  0.97757522  0.49351483     0.04500
C459        C  0.00469084  0.96790024  0.47861418    -0.07800
C460        C  0.03223159  0.99310167  0.48150839    -0.08500
C461        C  0.04014869  0.02601372  0.00497507    -0.03100
C462        C  0.01887578  0.03528352  0.02274192     0.03800
N463        N  0.02676260  0.06735546  0.04610380     0.66300
H464        H  0.47858380  0.01199247  0.03680580     0.15200
H465        H  0.04833518  0.98520413  0.46767575     0.14900
N466        N  0.99916695  0.93342135  0.45738480     0.74000
O467        O  0.53055107  0.09979340  0.04334536    -0.39500
O468        O  0.03599728  0.05890257  0.07613573    -0.39400
O469        O  0.49305687  0.95236679  0.41897313    -0.40100
O470        O  0.99809973  0.89808959  0.46860338    -0.40200
C471        C  0.25923319  0.98950974  0.46208317    -0.12500
C472        C  0.28945620  0.00981171  0.47547613     0.04500
C473        C  0.29010466  0.04020491  0.99572373    -0.07800
C474        C  0.26491751  0.04480662  0.00922922    -0.08500
C475        C  0.23621846  0.02045204  0.99912962    -0.03100
C476        C  0.23390217  0.99366992  0.47550024     0.03800
N477        N  0.20468142  0.96923857  0.46264862     0.66300
H478        H  0.25703546  0.96632433  0.44380273     0.15200
H479        H  0.26783282  0.06780396  0.02775213     0.14900
N480        N  0.32017895  0.06332730  0.00827331     0.74000
O481        O  0.19111084  0.96606369  0.43217205    -0.39500
O482        O  0.19783529  0.94343505  0.48091977    -0.39400
O483        O  0.33848405  0.07510665  0.49580199    -0.40100
O484        O  0.33248889  0.07065759  0.03836341    -0.40200
C485        C  0.41129190  0.98525814  0.09953905    -0.12500
C486        C  0.38302693  0.96511772  0.07992295     0.04500
C487        C  0.35593914  0.95917643  0.09123383    -0.07800
C488        C  0.35689124  0.97548890  0.12131465    -0.08500
C489        C  0.38489952  0.99693717  0.14060105    -0.03100
C490        C  0.41283394  0.00018011  0.12995293     0.03800
N491        N  0.44328514  0.01802689  0.15006131     0.66300
H492        H  0.43231070  0.98948697  0.09114888     0.15200
H493        H  0.33520987  0.97288550  0.12889492     0.14900
N494        N  0.32633926  0.93944760  0.07127552     0.74000
O495        O  0.46302631  0.99745384  0.17334226    -0.39500
O496        O  0.45299051  0.05092308  0.14133328    -0.39400
O497        O  0.32567487  0.90102546  0.06944696    -0.40100
O498        O  0.30035895  0.96028431  0.05658912    -0.40200
C499        C  0.37359426  0.03711738  0.37867506    -0.12500
C500        C  0.38358601  0.99593472  0.38523988     0.04500
C501        C  0.39392770  0.97419268  0.36222729    -0.07800
C502        C  0.39443072  0.99371187  0.33393086    -0.08500
C503        C  0.38320962  0.03426496  0.32653042    -0.03100
C504        C  0.37252392  0.05606099  0.34924552     0.03800
N505        N  0.36025909  0.09713533  0.34274777     0.66300
H506        H  0.36553529  0.05427501  0.39596274     0.15200
H507        H  0.40214813  0.97589015  0.31673789     0.14900
N508        N  0.40368315  0.93196730  0.36676392     0.74000
O509        O  0.32947047  0.10389135  0.32818507    -0.39500
O510        O  0.37897392  0.12626570  0.35599345    -0.39400
O511        O  0.38132591  0.90522559  0.36000818    -0.40100
O512        O  0.43304599  0.92153809  0.36889946    -0.40200
O513        O  0.43189281  0.97232025  0.50282062    -0.82000
C514        C  0.32206095  0.87678377  0.92965141     0.97400
O515        O  0.35172408  0.87188833  0.92906899    -0.71100
O516        O  0.37825386  0.93846109  0.91636763    -0.74700
Al517      Al  0.39318193  0.90180860  0.95165982     1.49000
C518        C  0.38339992  0.97600386  0.91610187     0.92600
O519        O  0.33873888  0.99955617  0.96398458    -0.80900
O520        O  0.37616521  0.91661778  0.53648157    -0.74500
Al521      Al  0.38427455  0.98374372  0.98343346     1.90100
O522        O  0.32118883  0.95457515  0.99165346    -0.73600
O523        O  0.36693639  0.85424808  0.49714111    -0.73400
O524        O  0.31712257  0.89577554  0.95259910    -0.79100
O525        O  0.40991086  0.85806469  0.98317417    -0.77300
O526        O  0.37536178  0.93086440  0.97627748    -1.13400
O527        O  0.43735530  0.92956447  0.96842525    -0.72600
C528        C  0.44870616  0.95800575  0.98923932     0.98100
C529        C  0.31686384  0.98678230  0.97495789     0.94500
Al530      Al  0.34733011  0.90790235  0.99334220     1.55600
O531        O  0.38932369  0.99631248  0.94194653    -0.77200
C532        C  0.39113744  0.83849752  0.99503216     0.98700
C533        C  0.38239119  0.95256314  0.54674481     0.93600
O534        O  0.38410219  0.98124976  0.52772140    -0.82500
O535        O  0.35952596  0.53278207  0.96288026    -0.82000
C536        C  0.43536203  0.62365728  0.57303499     0.97400
O537        O  0.43237810  0.63249263  0.54399340    -0.71100
O538        O  0.44713671  0.56416084  0.52494590    -0.74700
Al539      Al  0.41000065  0.60250392  0.00411625     1.49000
C540        C  0.44686912  0.52934635  0.51340180     0.92600
O541        O  0.39381791  0.50161810  0.55497119    -0.80900
O542        O  0.32123476  0.58473931  0.51887195    -0.74500
Al543      Al  0.37785727  0.52000514  0.51009124     1.90100
O544        O  0.36699352  0.54952614  0.57162984    -0.73600
O545        O  0.36512243  0.65163304  0.52841651    -0.73400
O546        O  0.41117086  0.60707820  0.57887549    -0.79100
O547        O  0.37710219  0.64218176  0.98440017    -0.77300
O548        O  0.38520757  0.57253444  0.52051584    -1.13400
O549        O  0.39780308  0.57641180  0.96239918    -0.72600
C550        C  0.37604909  0.55080701  0.94771321     0.98100
C551        C  0.38079576  0.51466132  0.57533980     0.94500
Al552      Al  0.36719548  0.59670166  0.54709126     1.55600
O553        O  0.42095255  0.50812509  0.50681228    -0.77200
C554        C  0.37181255  0.66528389  0.50398862     0.98700
C555        C  0.31197733  0.54818579  0.51017348     0.93600
O556        O  0.33317024  0.52113612  0.50952070    -0.82500
O557        O  0.09371583  0.97627426  0.74208642    -0.82000
C558        C  0.20200574  0.87853290  0.82118231     0.97400
O559        O  0.17215270  0.87555691  0.82127489    -0.71100
O560        O  0.14647861  0.94553207  0.83098746    -0.74700
Al561      Al  0.13129115  0.90733795  0.79740896     1.49000
C562        C  0.13927505  0.98298016  0.82881652     0.92600
O563        O  0.18508695  0.00163252  0.77903243    -0.80900
O564        O  0.15188379  0.91585149  0.71217617    -0.74500
Al565      Al  0.13974885  0.98574192  0.76117495     1.90100
O566        O  0.20423653  0.95215377  0.75606326    -0.73600
O567        O  0.15889480  0.85504782  0.75393147    -0.73400
O568        O  0.20756372  0.89632770  0.79807266    -0.79100
O569        O  0.11412354  0.86344398  0.76747269    -0.77300
O570        O  0.14936133  0.93320681  0.77151406    -1.13400
O571        O  0.08739007  0.93687412  0.78008679    -0.72600
C572        C  0.07582566  0.96441417  0.75805716     0.98100
C573        C  0.20700581  0.98694001  0.76856859     0.94500
Al574      Al  0.17802571  0.90692530  0.75640080     1.55600
O575        O  0.13427850  0.00187602  0.80215645    -0.77200
C576        C  0.13266350  0.84110811  0.75685200     0.98700
C577        C  0.14509846  0.95130440  0.70014609     0.93600
O578        O  0.14257048  0.98118736  0.71773573    -0.82500
O579        O  0.13799588  0.52901875  0.78200348    -0.82000
C580        C  0.06745461  0.62450353  0.67457932     0.97400
O581        O  0.07070301  0.63578068  0.70329056    -0.71100
O582        O  0.05403269  0.57264565  0.72744056    -0.74700
Al583      Al  0.09095703  0.60508884  0.74329975     1.49000
C584        C  0.05308549  0.53575218  0.73401447     0.92600
O585        O  0.10473173  0.50421729  0.69143646    -0.80900
O586        O  0.17997414  0.58055390  0.73104576    -0.74500
Al587      Al  0.12108799  0.52018964  0.73669418     1.90100
O588        O  0.13633375  0.54702167  0.67714622    -0.73600
O589        O  0.13825334  0.64975774  0.71730022    -0.73400
O590        O  0.09180130  0.60661296  0.66923195    -0.79100
O591        O  0.12505099  0.64345977  0.76098655    -0.77300
O592        O  0.11603738  0.57326826  0.72747437    -1.13400
O593        O  0.10434764  0.57864352  0.78579567    -0.72600
C594        C  0.12353018  0.54856065  0.79838470     0.98100
C595        C  0.11996901  0.51462041  0.67230933     0.94500
Al596      Al  0.13529507  0.59470548  0.70100275     1.55600
O597        O  0.07784336  0.51216924  0.73885652    -0.77200
C598        C  0.13399941  0.66571200  0.74195609     0.98700
C599        C  0.18813384  0.54347944  0.74028740     0.93600
O600        O  0.16600742  0.51743080  0.73846817    -0.82500
O601        O  0.33110432  0.47130947  0.74022704    -0.82000
C602        C  0.44417959  0.38184315  0.81814926     0.97400
O603        O  0.41487640  0.37658990  0.81935663    -0.71100
O604        O  0.38603155  0.44449806  0.82907783    -0.74700
Al605      Al  0.37202410  0.40516260  0.79610767     1.49000
C606        C  0.37834577  0.48180028  0.82639710     0.92600
O607        O  0.42099364  0.50191849  0.77393944    -0.80900
O608        O  0.38766286  0.41338252  0.70884494    -0.74500
Al609      Al  0.37627637  0.48361660  0.75786855     1.90100
O610        O  0.43945877  0.45359297  0.74938524    -0.73600
O611        O  0.40049108  0.35452036  0.75277474    -0.73400
O612        O  0.44785063  0.39960268  0.79404180    -0.79100
O613        O  0.35612152  0.35967723  0.76726934    -0.77300
O614        O  0.38793378  0.43186216  0.76890101    -1.13400
O615        O  0.32686634  0.43203236  0.77923711    -0.72600
C616        C  0.31423021  0.45902698  0.75692648     0.98100
C617        C  0.44158183  0.48865841  0.76122697     0.94500
Al618      Al  0.41635395  0.40714050  0.75274346     1.55600
O619        O  0.37203678  0.50002351  0.79927064    -0.77200
C620        C  0.37528284  0.33880828  0.75639153     0.98700
C621        C  0.37927687  0.44840804  0.69628670     0.93600
O622        O  0.37716613  0.47853511  0.71383420    -0.82500
O623        O  0.39635350  0.02982542  0.77785540    -0.82000
C624        C  0.32962210  0.12770388  0.67103725     0.97400
O625        O  0.33120685  0.13835198  0.69938260    -0.71100
O626        O  0.31247844  0.07208636  0.71842833    -0.74700
Al627      Al  0.34875537  0.10483011  0.73842404     1.49000
C628        C  0.31147414  0.03617596  0.72749374     0.92600
O629        O  0.36707069  0.00651803  0.68690450    -0.80900
O630        O  0.44069449  0.08379456  0.73098299    -0.74500
Al631      Al  0.38116601  0.02147124  0.73253498     1.90100
O632        O  0.39923220  0.05115569  0.67529830    -0.73600
O633        O  0.39812196  0.15218068  0.71769288    -0.73400
O634        O  0.35445780  0.10986617  0.66671200    -0.79100
O635        O  0.38229780  0.14197532  0.75950341    -0.77300
O636        O  0.37589011  0.07465316  0.72401070    -1.13400
O637        O  0.35967227  0.07649114  0.78001093    -0.72600
C638        C  0.38056262  0.04832494  0.79356785     0.98100
C639        C  0.38347977  0.01823633  0.66906177     0.94500
Al640      Al  0.39678854  0.09789007  0.69977909     1.55600
O641        O  0.33667572  0.01264358  0.73323737    -0.77200
C642        C  0.39137966  0.16615030  0.74182716     0.98700
C643        C  0.44913452  0.04656185  0.73921797     0.93600
O644        O  0.42710596  0.01979985  0.73615058    -0.82500
O645        O  0.12187984  0.03117310  0.96605106    -0.82000
C646        C  0.19644033  0.12145336  0.57453633     0.97400
O647        O  0.19318553  0.13321241  0.54595631    -0.71100
O648        O  0.20951275  0.06928501  0.52124002    -0.74700
Al649      Al  0.17125731  0.10243646  0.00595921     1.49000
C650        C  0.21008338  0.03329424  0.51205625     0.92600
O651        O  0.15818264  0.00040981  0.55594440    -0.80900
O652        O  0.08301064  0.08065206  0.52023130    -0.74500
Al653      Al  0.14191714  0.01981687  0.51102225     1.90100
O654        O  0.12931177  0.04574156  0.57232231    -0.73600
O655        O  0.12486788  0.14972826  0.53223143    -0.73400
O656        O  0.17239020  0.10416310  0.58008726    -0.79100
O657        O  0.13707701  0.14192405  0.98998347    -0.77300
O658        O  0.14739797  0.07240724  0.52155944    -1.13400
O659        O  0.15627478  0.07887473  0.96300559    -0.72600
C660        C  0.13559136  0.05150066  0.94952093     0.98100
C661        C  0.14420818  0.01167613  0.57609203     0.94500
Al662      Al  0.12866272  0.09380587  0.54876555     1.55600
O663        O  0.18519229  0.01080769  0.50773915    -0.77200
C664        C  0.12982609  0.16579369  0.50780191     0.98700
C665        C  0.07507326  0.04378784  0.51117294     0.93600
O666        O  0.09729638  0.01830580  0.51027568    -0.82500
O667        O  0.16859406  0.47811864  0.50850632    -0.82000
C668        C  0.06271025  0.37835636  0.93013374     0.97400
O669        O  0.09293901  0.37432175  0.93114511    -0.71100
O670        O  0.11815229  0.44283903  0.92083916    -0.74700
Al671      Al  0.13304690  0.40523269  0.95541398     1.49000
C672        C  0.12260015  0.48070785  0.92131209     0.92600
O673        O  0.07581161  0.50034076  0.96813151    -0.80900
O674        O  0.11082575  0.41859830  0.53754018    -0.74500
Al675      Al  0.12143466  0.48528228  0.98808036     1.90100
O676        O  0.05756598  0.45240364  0.99279385    -0.73600
O677        O  0.10395172  0.35735695  0.49736019    -0.73400
O678        O  0.05609171  0.39559558  0.95290941    -0.79100
O679        O  0.15006676  0.36134908  0.98685932    -0.77300
O680        O  0.11352643  0.43231977  0.97949352    -1.13400
O681        O  0.17618525  0.43411567  0.97330647    -0.72600
C682        C  0.18657392  0.46250612  0.99426715     0.98100
C683        C  0.05337154  0.48559857  0.97739188     0.94500
Al684      Al  0.08481008  0.40698362  0.99452146     1.55600
O685        O  0.12736152  0.50023404  0.94736181    -0.77200
C686        C  0.13138916  0.34014387  0.99779044     0.98700
C687        C  0.11641776  0.45413579  0.54883734     0.93600
O688        O  0.11840399  0.48400923  0.53095721    -0.82500
C689        C  0.11854932  0.23595028  0.52449968    -0.12500
C690        C  0.13069088  0.20973219  0.00670837     0.04500
C691        C  0.14676771  0.22862360  0.98669230    -0.07800
C692        C  0.14977097  0.27122850  0.98636509    -0.08500
C693        C  0.13747737  0.29603363  0.00591335    -0.03100
C694        C  0.12166564  0.27851691  0.52450758     0.03800
N695        N  0.11000810  0.30203449  0.54622255     0.66300
H696        H  0.10747911  0.22218266  0.54098091     0.15200
H697        H  0.16035059  0.28504172  0.96950443     0.14900
N698        N  0.16070038  0.20514673  0.96674897     0.74000
O699        O  0.07941266  0.30224654  0.54321647    -0.39500
O700        O  0.13069718  0.31968115  0.57013360    -0.39400
O701        O  0.14410076  0.20071581  0.93694619    -0.40100
O702        O  0.19147391  0.19599419  0.97716537    -0.40200
C703        C  0.28518493  0.09324487  0.62803351    -0.12500
C704        C  0.29681843  0.12968520  0.64422538     0.04500
C705        C  0.27489594  0.16389887  0.63799738    -0.07800
C706        C  0.24205588  0.16110566  0.61541816    -0.08500
C707        C  0.23002028  0.12385494  0.60030749    -0.03100
C708        C  0.25210416  0.08956067  0.60699841     0.03000
N709        N  0.24114665  0.05022565  0.59366700     0.66300
H710        H  0.30139447  0.06637097  0.63357949     0.15200
H711        H  0.22582292  0.18790653  0.60998081     0.14900
N712        N  0.28590993  0.20179820  0.65379367     0.74000
O713        O  0.21491707  0.03579437  0.59637796    -0.39500
O714        O  0.26097901  0.02656734  0.58605826    -0.39400
O715        O  0.29588101  0.22936408  0.63916852    -0.40100
O716        O  0.28181947  0.20959474  0.68051968    -0.40200
C717        C  0.47354682  0.36117361  0.87639027    -0.12500
C718        C  0.47512688  0.36926166  0.84538106     0.04500
C719        C  0.00670792  0.37082564  0.84256802    -0.07800
C720        C  0.03577625  0.36999621  0.87021321    -0.08500
C721        C  0.03384920  0.36602485  0.90144682    -0.03100
C722        C  0.00222656  0.35878275  0.90454249     0.03800
N723        N  0.50009012  0.34887553  0.93485427     0.66300
H724        H  0.44948942  0.35855071  0.87964914     0.15200
H725        H  0.05980845  0.37457785  0.86728823     0.14900
N726        N  0.01026236  0.37383051  0.81112205     0.74000
O727        O  0.48197546  0.37081729  0.94609995    -0.39500
O728        O  0.01297338  0.31724898  0.95062428    -0.39400
O729        O  0.02694538  0.40232008  0.80494054    -0.40100
O730        O  0.99992886  0.34547674  0.79083022    -0.40200
C731        C  0.38028505  0.28012107  0.72339094    -0.12500
C732        C  0.37159087  0.29472446  0.74972558     0.04500
C733        C  0.36947931  0.26682460  0.77351593    -0.07800
C734        C  0.37732549  0.22539100  0.77127720    -0.08500
C735        C  0.38750744  0.21094407  0.74558286    -0.03100
C736        C  0.38829841  0.23900126  0.72113282     0.03800
N737        N  0.39739686  0.22654336  0.69384831     0.66300
H738        H  0.38259517  0.30136777  0.70516740     0.15200
H739        H  0.37559069  0.20448995  0.78993136     0.14900
N740        N  0.36173847  0.28050850  0.80124499     0.74000
O741        O  0.37491282  0.21949302  0.66693651    -0.39500
O742        O  0.42751131  0.22827714  0.69533013    -0.39400
O743        O  0.33232849  0.27749636  0.80166045    -0.40100
O744        O  0.38497660  0.29054117  0.82680604    -0.40200
C745        C  0.26205063  0.46935431  0.77126274    -0.12500
C746        C  0.28156169  0.48092963  0.75254119     0.04500
C747        C  0.27118155  0.51672236  0.73250898    -0.07800
C748        C  0.24281476  0.53943154  0.73209505    -0.08500
C749        C  0.22300733  0.52708625  0.74992236    -0.03100
C750        C  0.23316745  0.49181860  0.77016286     0.03800
N751        N  0.21408558  0.47802771  0.78951759     0.66300
H752        H  0.26922633  0.44267206  0.78695690     0.15200
H753        H  0.23479213  0.56532156  0.71556766     0.14900
N754        N  0.28735136  0.52966024  0.71041007     0.74000
O755        O  0.20436457  0.44160129  0.78737841    -0.39500
O756        O  0.20986808  0.50092431  0.81105935    -0.39400
O757        O  0.26991808  0.53256985  0.68060493    -0.40100
O758        O  0.31343482  0.55062156  0.72106410    -0.40200
C759        C  0.02616952  0.52215016  0.77363742    -0.12500
C760        C  0.02411149  0.52266036  0.74084064     0.04500
C761        C  0.99323774  0.52117212  0.71570575    -0.07800
C762        C  0.46430967  0.51836824  0.72323187    -0.08500
C763        C  0.46677271  0.51373914  0.75603523    -0.03100
C764        C  0.49752177  0.51796182  0.78107197     0.03800
N765        N  0.50037020  0.51372634  0.81457200     0.66300
H766        H  0.05007742  0.52554579  0.79289197     0.15200
H767        H  0.44059123  0.51362413  0.70396218     0.14900
N768        N  0.99123028  0.52018221  0.68216883     0.74000
O769        O  0.00486044  0.47970279  0.82920364    -0.39500
O770        O  0.50533950  0.54480965  0.83248723    -0.39400
O771        O  0.01117083  0.49776092  0.67362569    -0.40100
O772        O  0.96789068  0.53893476  0.66063142    -0.40200
C773        C  0.12954269  0.47511117  0.86760218    -0.12500
C774        C  0.12405237  0.50058691  0.89109034     0.04500
C775        C  0.12066921  0.54309101  0.88489362    -0.07800
C776        C  0.12147180  0.55876566  0.85497975    -0.08500
C777        C  0.12617855  0.53273428  0.83120699    -0.03100
C778        C  0.13034376  0.49031124  0.83804931     0.03800
N779        N  0.13275285  0.46136113  0.81440591     0.66300
H780        H  0.13249966  0.44241570  0.87172809     0.15200
H781        H  0.11794955  0.59127893  0.85015572     0.14900
N782        N  0.11556140  0.57053830  0.90819948     0.74000
O783        O  0.15728357  0.43666083  0.82181604    -0.39500
O784        O  0.10684696  0.45323143  0.79069081    -0.39400
O785        O  0.13966010  0.59100382  0.92615785    -0.40100
O786        O  0.08639056  0.57751944  0.90847653    -0.40200
C787        C  0.14808086  0.47529114  0.60473272    -0.12500
C788        C  0.11816460  0.46174638  0.58250247     0.04500
C789        C  0.08928805  0.46011790  0.59162201    -0.07800
C790        C  0.09039419  0.47477626  0.62224210    -0.08500
C791        C  0.12018732  0.49000746  0.64405047    -0.03100
C792        C  0.14953451  0.48835851  0.63558809     0.03800
N793        N  0.18101705  0.50057631  0.65808761     0.66300
H794        H  0.17036110  0.47612342  0.59795894     0.15200
H795        H  0.06766325  0.47623079  0.62824378     0.14900
N796        N  0.05820024  0.44657315  0.56912651     0.74000
O797        O  0.19520274  0.47900026  0.68312444    -0.39500
O798        O  0.19667001  0.52930486  0.65072363    -0.39400
O799        O  0.05454507  0.40940464  0.56144766    -0.40100
O800        O  0.03332899  0.47071912  0.55972751    -0.40200
C801        C  0.12531596  0.72831810  0.77124747    -0.12500
C802        C  0.13446184  0.71105604  0.74583244     0.04500
C803        C  0.13895186  0.73768651  0.72202333    -0.07800
C804        C  0.13530907  0.77997460  0.72460639    -0.08500
C805        C  0.12673830  0.79705831  0.75024787    -0.03100
C806        C  0.12117041  0.77072972  0.77343720     0.03800
N807        N  0.11315892  0.78671516  0.80039204     0.66300
H808        H  0.12089592  0.70879180  0.78942996     0.15200
H809        H  0.14034812  0.79982897  0.70692420     0.14900
N810        N  0.14723549  0.72253107  0.69496661     0.74000
O811        O  0.08374544  0.79898581  0.79637799    -0.39500
O812        O  0.13449159  0.78481293  0.82873391    -0.39400
O813        O  0.12505014  0.72143504  0.66709162    -0.40100
O814        O  0.17740971  0.71548914  0.69800193    -0.40200
C815        C  0.14422240  0.04389501  0.86517014    -0.12500
C816        C  0.13461101  0.00334695  0.85742644     0.04500
C817        C  0.12066409  0.98171983  0.87773377    -0.07800
C818        C  0.11855552  0.99963762  0.90598628    -0.08500
C819        C  0.13073683  0.03889560  0.91540575    -0.03100
C820        C  0.14267465  0.06164968  0.89404209     0.03800
N821        N  0.15353007  0.10262786  0.90136861     0.66300
H822        H  0.15417218  0.06131660  0.84946336     0.15200
H823        H  0.10906320  0.98141821  0.92162395     0.14900
N824        N  0.10914690  0.94090485  0.87046599     0.74000
O825        O  0.18429389  0.10973596  0.91429680    -0.39500
O826        O  0.13315154  0.13183312  0.89012301    -0.39400
O827        O  0.12660667  0.91138639  0.88636965    -0.40100
O828        O  0.07951479  0.93492045  0.85209172    -0.40200
C829        C  0.16781937  0.94643126  0.65415304    -0.12500
C830        C  0.14201867  0.95893105  0.66576045     0.04500
C831        C  0.11579865  0.98348791  0.64571827    -0.07800
C832        C  0.11616392  0.99618973  0.61535653    -0.08500
C833        C  0.14299492  0.98686736  0.60441787    -0.03100
C834        C  0.16863434  0.96015235  0.62358437     0.03800
N835        N  0.19614377  0.94827634  0.61339917     0.66300
H836        H  0.18822477  0.92755449  0.66959312     0.15200
H837        H  0.09559264  0.01544389  0.60066120     0.14900
N838        N  0.08923859  0.99751563  0.65639901     0.74000
O839        O  0.22554807  0.94781206  0.63365185    -0.39500
O840        O  0.19067902  0.93218126  0.58586465    -0.39400
O841        O  0.07921733  0.03418778  0.65139046    -0.40100
O842        O  0.07397801  0.97268710  0.66832210    -0.40200
C843        C  0.50423200  0.04367061  0.73127185    -0.12500
C844        C  0.48441015  0.03126408  0.74917276     0.04500
C845        C  0.49534658  0.99722204  0.77048448    -0.07800
C846        C  0.02399196  0.97703594  0.77304553    -0.08500
C847        C  0.04304489  0.98676983  0.75324038    -0.03100
C848        C  0.03205882  0.02117184  0.73173538     0.03800
N849        N  0.04886416  0.03358939  0.70998421     0.66300
H850        H  0.49593327  0.06925419  0.71447077     0.15200
H851        H  0.03206001  0.95219021  0.79053949     0.14900
N852        N  0.47733655  0.98544262  0.79146182     0.74000
O853        O  0.03209173  0.03649334  0.67999317    -0.39500
O854        O  0.07545311  0.05356504  0.72105030    -0.39400
O855        O  0.46894428  0.94881562  0.79252258    -0.40100
O856        O  0.47205703  0.01104460  0.81080840    -0.40200
C857        C  0.22616937  0.03276661  0.73586127    -0.12500
C858        C  0.23376135  0.01125805  0.76532060     0.04500
C859        C  0.26701944  0.00030359  0.78305994    -0.07800
C860        C  0.29173308  0.00701646  0.76932563    -0.08500
C861        C  0.28374388  0.02552217  0.73845271    -0.03100
C862        C  0.25098735  0.04069728  0.72251482     0.03800
N863        N  0.24219607  0.06254495  0.69221452     0.66300
H864        H  0.20038747  0.04071043  0.72194009     0.15200
H865        H  0.31733526  0.99814536  0.78302593     0.14900
N866        N  0.27591668  0.98237236  0.81490657     0.74000
O867        O  0.22189112  0.04701593  0.66692382    -0.39500
O868        O  0.24781789  0.10028263  0.69237216    -0.39400
O869        O  0.26636295  0.94704672  0.81868190    -0.40100
O870        O  0.29456176  0.00134795  0.83928349    -0.40200
C871        C  0.99746558  0.62585260  0.59119787    -0.12500
C872        C  0.46872815  0.62968618  0.59899059     0.04500
C873        C  0.47286609  0.63683205  0.63197744    -0.07800
C874        C  0.00492238  0.63536396  0.65662478    -0.08500
C875        C  0.03397648  0.62972795  0.64808540    -0.03100
C876        C  0.02972241  0.62532862  0.61470389     0.03800
N877        N  0.05779086  0.61926664  0.60413410     0.66300
H878        H  0.99514912  0.62142688  0.56592656     0.15200
H879        H  0.00721852  0.63888524  0.68198276     0.14900
N880        N  0.44451414  0.64476042  0.64176838     0.74000
O881        O  0.06772493  0.58344653  0.60130873    -0.39500
O882        O  0.06842585  0.64879065  0.59198319    -0.39400
O883        O  0.43183754  0.61629150  0.65301797    -0.40100
O884        O  0.43425230  0.68099561  0.64224785    -0.40200
C885        C  0.39974321  0.44220277  0.64891328    -0.12500
C886        C  0.37511172  0.45601798  0.66164122     0.04500
C887        C  0.35059777  0.48396800  0.64331323    -0.07800
C888        C  0.35250439  0.50021412  0.61453895    -0.08500
C889        C  0.37886138  0.49006991  0.60328327    -0.03100
C890        C  0.40195359  0.45919362  0.61986553     0.03800
N891        N  0.42865736  0.44651907  0.60885281     0.66300
H892        H  0.41895983  0.42080877  0.66292429     0.15200
H893        H  0.33329433  0.52206759  0.60120482     0.14900
N894        N  0.32409535  0.49745318  0.65417952     0.74000
O895        O  0.44978928  0.47200364  0.60663435    -0.39500
O896        O  0.43306287  0.40913062  0.60441995    -0.39400
O897        O  0.31586090  0.53480396  0.65194705    -0.40100
O898        O  0.30578914  0.47157740  0.66113857    -0.40200
C899        C  0.39202112  0.53882107  0.86675197    -0.12500
C900        C  0.37471401  0.50290031  0.85508660     0.04500
C901        C  0.35457767  0.48623530  0.87183225    -0.07800
C902        C  0.35327389  0.50440328  0.90040336    -0.08500
C903        C  0.37257703  0.53855150  0.91372314    -0.03100
C904        C  0.39150771  0.55643746  0.89598997     0.03800
N905        N  0.41129031  0.59164012  0.90775643     0.66300
H906        H  0.40726956  0.55220139  0.85396173     0.15200
H907        H  0.33839123  0.49009304  0.91315649     0.14900
N908        N  0.33540595  0.45045692  0.86033643     0.74000
O909        O  0.44176535  0.58729469  0.92482800    -0.39500
O910        O  0.40010419  0.62638914  0.89630110    -0.39400
O911        O  0.34912452  0.41576942  0.86822871    -0.40100
O912        O  0.30391246  0.45334785  0.84980375    -0.40200
C913        C  0.26118872  0.53751348  0.52611018    -0.12500
C914        C  0.27704109  0.53324491  0.50281871     0.04500
C915        C  0.26221960  0.50388260  0.97639784    -0.07800
C916        C  0.23499691  0.47950074  0.97587974    -0.08500
C917        C  0.21912820  0.48394882  0.99919791    -0.03100
C918        C  0.23358623  0.51329367  0.52513798     0.03800
N919        N  0.21989764  0.51770881  0.55077290     0.66300
H920        H  0.27170386  0.55772916  0.54653389     0.15200
H921        H  0.22563464  0.45770502  0.95638907     0.14900
N922        N  0.27710259  0.49785847  0.95180165     0.74000
O923        O  0.22256276  0.48872412  0.57068730    -0.39500
O924        O  0.20838583  0.55186160  0.55563361    -0.39400
O925        O  0.29034128  0.46382029  0.94945959    -0.40100
O926        O  0.27392568  0.52506017  0.93035054    -0.40200
C927        C  0.00179823  0.54628066  0.50940293    -0.12500
C928        C  0.47424581  0.51856283  0.50151925     0.04500
C929        C  0.46898655  0.48857995  0.97759338    -0.07800
C930        C  0.99371533  0.48540772  0.96313464    -0.08500
C931        C  0.02310371  0.50785917  0.97474657    -0.03100
C932        C  0.02575759  0.54264860  0.49444964     0.03800
N933        N  0.05435906  0.56825619  0.50450951     0.66300
H934        H  0.50456568  0.56872875  0.52754865     0.15200
H935        H  0.99211414  0.46071301  0.94618518     0.14900
N936        N  0.44103302  0.46175985  0.96778269     0.74000
O937        O  0.05727699  0.59626027  0.48576127    -0.39500
O938        O  0.07506752  0.56536600  0.53311067    -0.39400
O939        O  0.42502149  0.45697515  0.93785886    -0.40100
O940        O  0.43691913  0.43684734  0.98820019    -0.40200
C941        C  0.29279379  0.85820009  0.87127902    -0.12500
C942        C  0.29181207  0.86294614  0.90282501     0.04500
C943        C  0.26027285  0.86145381  0.90739178    -0.07800
C944        C  0.23064166  0.86335051  0.88034642    -0.08500
C945        C  0.23169840  0.86359360  0.84864248    -0.03100
C946        C  0.26305079  0.85682910  0.84421138     0.03800
N947        N  0.26502197  0.84952774  0.81237946     0.66300
H948        H  0.31671971  0.85717835  0.86753950     0.15200
H949        H  0.20683836  0.86643196  0.88419765     0.14900
N950        N  0.25802500  0.85888646  0.93941429     0.74000
O951        O  0.29008948  0.86101638  0.80549659    -0.39500
O952        O  0.24367601  0.82738743  0.79242769    -0.39400
O953        O  0.23829472  0.88223825  0.94741609    -0.40100
O954        O  0.27350147  0.83072297  0.95870575    -0.40200
C955        C  0.39586362  0.76820776  0.97641127    -0.12500
C956        C  0.39429933  0.79397159  0.00142729     0.04500
C957        C  0.38441994  0.77718154  0.52604825    -0.07800
C958        C  0.37466504  0.73636503  0.52501687    -0.08500
C959        C  0.37368158  0.71138573  0.99926709    -0.03100
C960        C  0.38554665  0.72744317  0.97493782     0.03800
N961        N  0.38656852  0.70323399  0.94804500     0.66300
H962        H  0.40252834  0.78063936  0.95640611     0.15200
H963        H  0.36594406  0.72511052  0.54406974     0.14900
N964        N  0.38151426  0.80271097  0.55160118     0.74000
O965        O  0.35968038  0.69205063  0.92685917    -0.39500
O966        O  0.41398711  0.69716753  0.94339542    -0.39400
O967        O  0.35453673  0.80422015  0.55769776    -0.40100
O968        O  0.40647812  0.82216350  0.56922206    -0.40200
C969        C  0.49335051  0.00844503  0.51749486    -0.12500
C970        C  0.48224795  0.97786483  0.99554655     0.04500
C971        C  0.00296025  0.96906502  0.97902568    -0.07800
C972        C  0.03142269  0.99299719  0.98306130    -0.08500
C973        C  0.04065978  0.02646914  0.50312315    -0.03100
C974        C  0.02002410  0.03477009  0.52172811     0.03800
N975        N  0.02753865  0.06735742  0.54466139     0.66300
H976        H  0.47933473  0.01360459  0.53379419     0.15200
H977        H  0.04786276  0.98444146  0.96973785     0.14900
N978        N  0.99714296  0.93490999  0.95744781     0.74000
O979        O  0.52827588  0.10183181  0.53743935    -0.39500
O980        O  0.03538282  0.05965183  0.57472075    -0.39400
O981        O  0.49187380  0.95551177  0.92044790    -0.40100
O982        O  0.99514573  0.89957058  0.96820367    -0.40200
C983        C  0.25725513  0.98846033  0.95976845    -0.12500
C984        C  0.28698467  0.01001602  0.97224742     0.04500
C985        C  0.29323774  0.03854676  0.50019241    -0.07800
C986        C  0.26773770  0.04351992  0.51330179    -0.08500
C987        C  0.23827566  0.02072266  0.50181334    -0.03100
C988        C  0.23215774  0.99235527  0.97353908     0.03800
N989        N  0.20369060  0.96645987  0.96194333     0.66300
H990        H  0.25554313  0.96440708  0.94226883     0.15200
H991        H  0.27091453  0.06563501  0.53250466     0.14900
N992        N  0.32401690  0.05998963  0.51404869     0.74000
O993        O  0.19025999  0.96096892  0.93169217    -0.39500
O994        O  0.19767593  0.94164413  0.98139019    -0.39400
O995        O  0.33386587  0.07777842  0.98912519    -0.40100
O996        O  0.33619609  0.06522374  0.54444770    -0.40200
C997        C  0.41137735  0.98640134  0.59873019    -0.12500
C998        C  0.38497609  0.96245014  0.58040638     0.04500
C999        C  0.35956212  0.95229924  0.59313825    -0.07800
C1000       C  0.35974946  0.96894495  0.62293163    -0.08500
C1001       C  0.38556045  0.99472662  0.64063117    -0.03100
C1002       C  0.41247267  0.00137435  0.62894606     0.03800
N1003       N  0.44189195  0.02197351  0.64813837     0.66300
H1004       H  0.43144288  0.99339934  0.58955497     0.15200
H1005       H  0.33905991  0.96311442  0.63145634     0.14900
N1006       N  0.33223736  0.92757013  0.57498009     0.74000
O1007       O  0.46318501  0.00292326  0.67130857    -0.39500
O1008       O  0.44969195  0.05522243  0.63811130    -0.39400
O1009       O  0.33353697  0.88950731  0.57987443    -0.40100
O1010       O  0.30597563  0.94398543  0.55554778    -0.40200
C1011       C  0.37460100  0.03691099  0.87881020    -0.12500
C1012       C  0.38367177  0.99549933  0.88538270     0.04500
C1013       C  0.39357914  0.97304225  0.86243483    -0.07800
C1014       C  0.39434454  0.99202105  0.83402482    -0.08500
C1015       C  0.38404198  0.03286743  0.82666959    -0.03100
C1016       C  0.37408790  0.05546054  0.84945665     0.03800
N1017       N  0.36333952  0.09709442  0.84316619     0.66300
H1018       H  0.36701730  0.05466040  0.89611583     0.15200
H1019       H  0.40153343  0.97368073  0.81676152     0.14900
N1020       N  0.40265667  0.93065452  0.86723050     0.74000
O1021       O  0.33251375  0.10589680  0.83226318    -0.39500
O1022       O  0.38439376  0.12521720  0.85211887    -0.39400
O1023       O  0.37997577  0.90432299  0.85925674    -0.40100
O1024       O  0.43244874  0.91962655  0.87168268    -0.40200
O1025       O  0.92717271  0.97771392  0.00072249    -0.82000
C1026       C  0.82385642  0.87656704  0.42797320     0.97400
O1027       O  0.85384055  0.87115308  0.42846273    -0.71100
O1028       O  0.88177085  0.93712117  0.41702188    -0.74700
Al1029     Al  0.89515434  0.90047602  0.45234245     1.49000
C1030       C  0.88673432  0.97472249  0.41704245     0.92600
O1031       O  0.83970855  0.99864765  0.46315656    -0.80900
O1032       O  0.87270134  0.92002898  0.03532754    -0.74500
Al1033     Al  0.88522910  0.98259172  0.48348555     1.90100
O1034       O  0.82115007  0.95350886  0.48980411    -0.73600
O1035       O  0.86622689  0.85542239  0.99839812    -0.73400
O1036       O  0.81815715  0.89507454  0.45074780    -0.79100
O1037       O  0.91074582  0.85672312  0.48409009    -0.77300
O1038       O  0.87635773  0.92974285  0.47609024    -1.13400
O1039       O  0.93923649  0.92775774  0.47027211    -0.72600
C1040       C  0.95016820  0.95654201  0.49080733     0.98100
C1041       C  0.81725345  0.98581592  0.47333336     0.94500
Al1042     Al  0.84734004  0.90688422  0.49203637     1.55600
O1043       O  0.89136494  0.99505439  0.44266916    -0.77200
C1044       C  0.89140582  0.83740936  0.49539122     0.98700
C1045       C  0.87739505  0.95675662  0.04412706     0.93600
O1046       O  0.87764850  0.98459340  0.02386625    -0.82500
O1047       O  0.86147197  0.53192063  0.46503689    -0.82000
C1048       C  0.93309227  0.62544126  0.07224113     0.97400
O1049       O  0.93035481  0.63405156  0.04321805    -0.71100
O1050       O  0.94556313  0.56592062  0.02384387    -0.74700
Al1051     Al  0.91245133  0.60108760  0.50634851     1.49000
C1052       C  0.94524618  0.53057368  0.01314190     0.92600
O1053       O  0.89127559  0.50302051  0.05412419    -0.80900
O1054       O  0.81908140  0.58625021  0.01738341    -0.74500
Al1055     Al  0.87599545  0.52149800  0.00916933     1.90100
O1056       O  0.86438815  0.55121084  0.07032414    -0.73600
O1057       O  0.86295707  0.65298131  0.02736327    -0.73400
O1058       O  0.90884140  0.60873603  0.07793745    -0.79100
O1059       O  0.87958386  0.64072340  0.48666439    -0.77300
O1060       O  0.88332341  0.57402398  0.01956978    -1.13400
O1061       O  0.90004355  0.57507937  0.46439315    -0.72600
C1062       C  0.87784804  0.54990741  0.44971085     0.98100
C1063       C  0.87785027  0.51619033  0.07414746     0.94500
Al1064     Al  0.86495131  0.59821913  0.04589934     1.55600
O1065       O  0.91924892  0.50955834  0.00667635    -0.77200
C1066       C  0.86980231  0.66675081  0.00309729     0.98700
C1067       C  0.80989056  0.54973086  0.00850064     0.93600
O1068       O  0.83115044  0.52276589  0.00791139    -0.82500
O1069       O  0.59232453  0.97341370  0.24072748    -0.82000
C1070       C  0.70343455  0.87937846  0.31806849     0.97400
O1071       O  0.67416240  0.87607874  0.31973733    -0.71100
O1072       O  0.64991257  0.94685881  0.32930110    -0.74700
Al1073     Al  0.63259036  0.90738885  0.29720296     1.49000
C1074       C  0.64179278  0.98401214  0.32632734     0.92600
O1075       O  0.68366104  0.99923627  0.27261955    -0.80900
O1076       O  0.64654523  0.91064910  0.20862200    -0.74500
Al1077     Al  0.63829048  0.98338923  0.25742239     1.90100
O1078       O  0.70033586  0.94886248  0.24838534    -0.73600
O1079       O  0.65679561  0.85225590  0.25316337    -0.73400
O1080       O  0.70723099  0.89578838  0.29353599    -0.79100
O1081       O  0.61365741  0.86268903  0.26906504    -0.77300
O1082       O  0.64839171  0.93141797  0.26886724    -1.13400
O1083       O  0.58852800  0.93699958  0.28141340    -0.72600
C1084       C  0.57589848  0.96332102  0.25858163     0.98100
C1085       C  0.70373369  0.98420964  0.25995560     0.94500
Al1086     Al  0.67535075  0.90393486  0.25242275     1.55600
O1087       O  0.63506921  0.00173216  0.29893532    -0.77200
C1088       C  0.63100309  0.83944924  0.25775285     0.98700
C1089       C  0.63962292  0.94581644  0.19594231     0.93600
O1090       O  0.63853533  0.97651512  0.21334606    -0.82500
O1091       O  0.63429527  0.52936839  0.27982232    -0.82000
C1092       C  0.56419587  0.62593111  0.17276696     0.97400
O1093       O  0.56736336  0.63666289  0.20155261    -0.71100
O1094       O  0.55024229  0.57277799  0.22416811    -0.74700
Al1095     Al  0.58703021  0.60506044  0.24112680     1.49000
C1096       C  0.54923214  0.53614480  0.23141163     0.92600
O1097       O  0.60122602  0.50443887  0.18928782    -0.80900
O1098       O  0.67631320  0.58062363  0.22955532    -0.74500
Al1099     Al  0.61736469  0.52035416  0.23458034     1.90100
O1100       O  0.63267318  0.54777256  0.17523558    -0.73600
O1101       O  0.63499841  0.64975191  0.21632593    -0.73400
O1102       O  0.58843473  0.60775060  0.16740715    -0.79100
O1103       O  0.62118971  0.64285452  0.25967405    -0.77300
O1104       O  0.61232114  0.57346871  0.22543168    -1.13400
O1105       O  0.59987844  0.57818853  0.28334810    -0.72600
C1106       C  0.61973254  0.54880154  0.29616030     0.98100
C1107       C  0.61665491  0.51509899  0.17036228     0.94500
Al1108     Al  0.63181486  0.59516881  0.19936536     1.55600
O1109       O  0.57400967  0.51242754  0.23676661    -0.77200
C1110       C  0.63049225  0.66526094  0.24101390     0.98700
C1111       C  0.68445674  0.54354564  0.23873504     0.93600
O1112       O  0.66230816  0.51740198  0.23646998    -0.82500
O1113       O  0.82825625  0.47341642  0.23994329    -0.82000
C1114       C  0.94281304  0.38643299  0.31729588     0.97400
O1115       O  0.91366232  0.38013613  0.31858369    -0.71100
O1116       O  0.88432588  0.44715410  0.32844043    -0.74700
Al1117     Al  0.87032746  0.40788108  0.29565035     1.49000
C1118       C  0.87636959  0.48434189  0.32604845     0.92600
O1119       O  0.91763370  0.50580097  0.27269498    -0.80900
O1120       O  0.88473194  0.41652730  0.20808738    -0.74500
Al1121     Al  0.87319105  0.48660854  0.25715951     1.90100
O1122       O  0.93615619  0.45795210  0.24777870    -0.73600
O1123       O  0.89923420  0.35804207  0.25252744    -0.73400
O1124       O  0.94601849  0.40444238  0.29306002    -0.79100
O1125       O  0.85478863  0.36210531  0.26694914    -0.77300
O1126       O  0.88555406  0.43506255  0.26819828    -1.13400
O1127       O  0.82474221  0.43408922  0.27919618    -0.72600
C1128       C  0.81170848  0.46098793  0.25687925     0.98100
C1129       C  0.93807147  0.49296749  0.25965444     0.94500
Al1130     Al  0.91402805  0.41103108  0.25182904     1.55600
O1131       O  0.86936066  0.50278116  0.29890447    -0.77200
C1132       C  0.87442779  0.34158483  0.25641438     0.98700
C1133       C  0.87583557  0.45140933  0.19538684     0.93600
O1134       O  0.87357076  0.48155253  0.21288928    -0.82500
O1135       O  0.89904806  0.02944047  0.27877992    -0.82000
C1136       C  0.82795222  0.13056943  0.17544164     0.97400
O1137       O  0.83089408  0.13927874  0.20446530    -0.71100
O1138       O  0.81459430  0.07271101  0.22461287    -0.74700
Al1139     Al  0.85100877  0.10580591  0.24257853     1.49000
C1140       C  0.81411184  0.03522409  0.22945554     0.92600
O1141       O  0.86835661  0.00937252  0.18726165    -0.80900
O1142       O  0.94109825  0.08749540  0.23014812    -0.74500
Al1143     Al  0.88322552  0.02318453  0.23315754     1.90100
O1144       O  0.89797016  0.05614323  0.17468304    -0.73600
O1145       O  0.89790589  0.15488865  0.21936405    -0.73400
O1146       O  0.85250113  0.11402924  0.16941936    -0.79100
O1147       O  0.88442878  0.14401961  0.26239566    -0.77300
O1148       O  0.87702755  0.07668657  0.22585992    -1.13400
O1149       O  0.86438001  0.07713694  0.28350442    -0.72600
C1150       C  0.88485179  0.04827990  0.29576872     0.98100
C1151       C  0.88308739  0.02271038  0.16848575     0.94500
Al1152     Al  0.89611182  0.10150329  0.20065163     1.55600
O1153       O  0.83952277  0.01265745  0.23393293    -0.77200
C1154       C  0.89240954  0.16851329  0.24414911     0.98700
C1155       C  0.95016223  0.05047111  0.23863456     0.93600
O1156       O  0.92867905  0.02320097  0.23594334    -0.82500
O1157       O  0.62360248  0.03229916  0.46292731    -0.82000
C1158       C  0.69812880  0.12014010  0.07259009     0.97400
O1159       O  0.69453190  0.12880130  0.04335544    -0.71100
O1160       O  0.70709902  0.06290752  0.01876282    -0.74700
Al1161     Al  0.67250014  0.10371344  0.50342956     1.49000
C1162       C  0.70570754  0.02849398  0.00629419     0.92600
O1163       O  0.65669171  0.99748235  0.05448407    -0.80900
O1164       O  0.58331590  0.08079388  0.02123857    -0.74500
Al1165     Al  0.63906037  0.01751896  0.00950545     1.90100
O1166       O  0.63069105  0.04501518  0.07229421    -0.73600
O1167       O  0.62626490  0.14811240  0.03172605    -0.73400
O1168       O  0.67438244  0.10332682  0.07917394    -0.79100
O1169       O  0.63900378  0.14386649  0.48632643    -0.77300
O1170       O  0.64651306  0.07013994  0.02040995    -1.13400
O1171       O  0.65847658  0.07987313  0.46067745    -0.72600
C1172       C  0.63784109  0.05263278  0.44682898     0.98100
C1173       C  0.64358868  0.00980323  0.07510836     0.94500
Al1174     Al  0.62976374  0.09275926  0.04861229     1.55600
O1175       O  0.68086162  0.00634649  0.00321012    -0.77200
C1176       C  0.63123141  0.16403839  0.00728575     0.98700
C1177       C  0.57402233  0.04438716  0.01199581     0.93600
O1178       O  0.59522647  0.01769252  0.01083534    -0.82500
O1179       O  0.66758981  0.47691665  0.00753515    -0.82000
C1180       C  0.56255970  0.38217584  0.42867829     0.97400
O1181       O  0.59274945  0.37761357  0.42965709    -0.71100
O1182       O  0.61838637  0.44580654  0.42029603    -0.74700
Al1183     Al  0.63324930  0.40780331  0.45423332     1.49000
C1184       C  0.62314273  0.48355527  0.42092180     0.92600
O1185       O  0.57700118  0.50292504  0.46781917    -0.80900
O1186       O  0.61113412  0.41605746  0.03758536    -0.74500
Al1187     Al  0.62252447  0.48745899  0.48777693     1.90100
O1188       O  0.55856900  0.45519211  0.49248352    -0.73600
O1189       O  0.60547490  0.35457074  0.99789653    -0.73400
O1190       O  0.55621680  0.39921811  0.45168386    -0.79100
O1191       O  0.65003152  0.36350749  0.48509077    -0.77300
O1192       O  0.61416077  0.43469898  0.47869624    -1.13400
O1193       O  0.67671283  0.43596848  0.47240488    -0.72600
C1194       C  0.68753098  0.46371738  0.49386787     0.98100
C1195       C  0.55432286  0.48808262  0.47665662     0.94500
Al1196     Al  0.58524979  0.40945661  0.49345806     1.55600
O1197       O  0.62850371  0.50293509  0.44712821    -0.77200
C1198       C  0.63107086  0.34216966  0.49551263     0.98700
C1199       C  0.61601572  0.45184373  0.04848158     0.93600
O1200       O  0.61763600  0.48156378  0.03032322    -0.82500
C1201       C  0.62033808  0.23388134  0.02447019    -0.12500
C1202       C  0.63074096  0.21152163  0.50232291     0.04500
C1203       C  0.64777097  0.23114046  0.48351772    -0.07800
C1204       C  0.65028632  0.27382928  0.48368585    -0.08500
C1205       C  0.63671877  0.29786582  0.50271966    -0.03100
C1206       C  0.62378238  0.27635408  0.02498270     0.03800
N1207       N  0.61207143  0.29959407  0.04681112     0.66300
H1208       H  0.60886427  0.21998523  0.04057386     0.15200
H1209       H  0.66178517  0.28828255  0.46782407     0.14900
N1210       N  0.66337512  0.20834445  0.46458661     0.74000
O1211       O  0.58147881  0.29960713  0.04381305    -0.39500
O1212       O  0.63276429  0.31669909  0.07103579    -0.39400
O1213       O  0.64955192  0.20700551  0.43405210    -0.40100
O1214       O  0.69360802  0.19727138  0.47726404    -0.40200
C1215       C  0.79254887  0.12756786  0.11704130    -0.12500
C1216       C  0.79473051  0.13638153  0.14895171     0.04500
C1217       C  0.76440003  0.14371783  0.15524681    -0.07800
C1218       C  0.73317653  0.13881726  0.13027616    -0.08500
C1219       C  0.73120701  0.12838904  0.09846461    -0.03100
C1220       C  0.76169065  0.12369307  0.09209483     0.03000
N1221       N  0.76239762  0.11088546  0.06116737     0.66300
H1222       H  0.81517119  0.12175828  0.11142878     0.15200
H1223       H  0.71037404  0.14320707  0.13582735     0.14900
N1224       N  0.76469920  0.15552088  0.18687918     0.74000
O1225       O  0.77775307  0.07803122  0.05984284    -0.39500
O1226       O  0.75751960  0.13713985  0.03871164    -0.39400
O1227       O  0.77298605  0.19126496  0.19673840    -0.40100
O1228       O  0.75219120  0.13255266  0.20284744    -0.40200
C1229       C  0.97250595  0.36639699  0.37558687    -0.12500
C1230       C  0.97401339  0.37469254  0.34457919     0.04500
C1231       C  0.50598175  0.37591018  0.34104623    -0.07800
C1232       C  0.53516087  0.37510035  0.36861624    -0.08500
C1233       C  0.53346891  0.37050879  0.39989904    -0.03100
C1234       C  0.50193227  0.36298589  0.40310439     0.03800
N1235       N  0.99896026  0.35442738  0.43404893     0.66300
H1236       H  0.94847394  0.36339029  0.37883997     0.15200
H1237       H  0.55910493  0.38007802  0.36560521     0.14900
N1238       N  0.50938494  0.37967222  0.30957956     0.74000
O1239       O  0.98159052  0.37711582  0.44563085    -0.39500
O1240       O  0.51314278  0.32125942  0.44913765    -0.39400
O1241       O  0.52567165  0.40872907  0.30358268    -0.40100
O1242       O  0.49944282  0.35143056  0.28910710    -0.40200
C1243       C  0.88282761  0.28237042  0.22556799    -0.12500
C1244       C  0.87189728  0.29720875  0.25047798     0.04500
C1245       C  0.86815564  0.26947818  0.27368317    -0.07800
C1246       C  0.87622654  0.22793772  0.27208327    -0.08500
C1247       C  0.88867688  0.21334955  0.24791542    -0.03100
C1248       C  0.89164447  0.24137156  0.22431847     0.03800
N1249       N  0.90417461  0.22910051  0.19913849     0.66300
H1250       H  0.88648895  0.30342315  0.20786331     0.15200
H1251       H  0.87290153  0.20708081  0.29004135     0.14900
N1252       N  0.85838774  0.28336462  0.30020711     0.74000
O1253       O  0.88435847  0.22586876  0.17024589    -0.39500
O1254       O  0.93531909  0.22743437  0.20482939    -0.39400
O1255       O  0.82942849  0.27610367  0.30051733    -0.40100
O1256       O  0.87999721  0.29760613  0.32527922    -0.40200
C1257       C  0.75903054  0.47032720  0.27070758    -0.12500
C1258       C  0.77887288  0.48254532  0.25247550     0.04500
C1259       C  0.76843237  0.51849331  0.23257773    -0.07800
C1260       C  0.73965691  0.54057023  0.23172706    -0.08500
C1261       C  0.71942753  0.52742707  0.24883362    -0.03100
C1262       C  0.72963338  0.49210815  0.26899488     0.03800
N1263       N  0.71009626  0.47758244  0.28764253     0.66300
H1264       H  0.76624170  0.44360748  0.28635756     0.15200
H1265       H  0.73170585  0.56664956  0.21538791     0.14900
N1266       N  0.78513251  0.53247678  0.21120831     0.74000
O1267       O  0.69912289  0.44169721  0.28365131    -0.39500
O1268       O  0.70698277  0.49888070  0.31053140    -0.39400
O1269       O  0.76817134  0.53629711  0.18133191    -0.40100
O1270       O  0.81102812  0.55357404  0.22274741    -0.40200
C1271       C  0.52289201  0.52431639  0.27172759    -0.12500
C1272       C  0.52036757  0.52405158  0.23881528     0.04500
C1273       C  0.48925139  0.52388266  0.21404600    -0.07800
C1274       C  0.96110286  0.52237954  0.22192577    -0.08500
C1275       C  0.96330261  0.51811222  0.25468760    -0.03100
C1276       C  0.99406143  0.52177906  0.27986199     0.03800
N1277       N  0.99668775  0.51836395  0.31339400     0.66300
H1278       H  0.54707267  0.52695609  0.29070920     0.15200
H1279       H  0.93734205  0.51816670  0.20258166     0.14900
N1280       N  0.48684980  0.52175350  0.18048278     0.74000
O1281       O  0.49254806  0.48369016  0.32555199    -0.39500
O1282       O  0.00755195  0.54789145  0.33235503    -0.39400
O1283       O  0.50399412  0.49554728  0.17159896    -0.40100
O1284       O  0.46638049  0.54440413  0.15937324    -0.40200
C1285       C  0.62979190  0.47735041  0.36732422    -0.12500
C1286       C  0.62409640  0.50316235  0.39051368     0.04500
C1287       C  0.61928794  0.54536405  0.38347882    -0.07800
C1288       C  0.61884631  0.56035424  0.35295813    -0.08500
C1289       C  0.62341026  0.53383229  0.32938590    -0.03100
C1290       C  0.62894092  0.49174084  0.33705536     0.03800
N1291       N  0.63077071  0.46218438  0.31356847     0.66300
H1292       H  0.63381759  0.44486115  0.37214148     0.15200
H1293       H  0.61431848  0.59263010  0.34745650     0.14900
N1294       N  0.61374348  0.57304097  0.40643135     0.74000
O1295       O  0.65482022  0.43676591  0.32107843    -0.39500
O1296       O  0.60470061  0.45450045  0.28989158    -0.39400
O1297       O  0.63688423  0.59612794  0.42260009    -0.40100
O1298       O  0.58479310  0.57756438  0.40798378    -0.40200
C1299       C  0.64651426  0.47557563  0.10385552    -0.12500
C1300       C  0.61726179  0.45999241  0.08193094     0.04500
C1301       C  0.58829524  0.45748292  0.09087149    -0.07800
C1302       C  0.58863955  0.47314574  0.12098492    -0.08500
C1303       C  0.61773542  0.49034597  0.14244730    -0.03100
C1304       C  0.64722527  0.48975826  0.13418316     0.03800
N1305       N  0.67815950  0.50396255  0.15639459     0.66300
H1306       H  0.66883829  0.47724680  0.09720472     0.15200
H1307       H  0.56582379  0.47367454  0.12685884     0.14900
N1308       N  0.55781653  0.44190450  0.06867156     0.74000
O1309       O  0.69439849  0.48189070  0.18047216    -0.39500
O1310       O  0.69170777  0.53483978  0.14914617    -0.39400
O1311       O  0.55585318  0.40455254  0.06142206    -0.40100
O1312       O  0.53178529  0.46418423  0.05945315    -0.40200
C1313       C  0.62815989  0.72688930  0.27401985    -0.12500
C1314       C  0.63096344  0.71034618  0.24526448     0.04500
C1315       C  0.62915182  0.73730713  0.21921751    -0.07800
C1316       C  0.62605564  0.77939522  0.22285074    -0.08500
C1317       C  0.62393090  0.79577872  0.25172026    -0.03100
C1318       C  0.62442051  0.76914443  0.27731281     0.03800
N1319       N  0.62312202  0.78474194  0.30745278     0.66300
H1320       H  0.62861467  0.70692754  0.29403745     0.15200
H1321       H  0.62637706  0.79966577  0.20324551     0.14900
N1322       N  0.62972190  0.72261508  0.18858162     0.74000
O1323       O  0.59594482  0.79891433  0.30900112    -0.39500
O1324       O  0.64808482  0.78050464  0.33318668    -0.39400
O1325       O  0.60268785  0.71931163  0.16501197    -0.40100
O1326       O  0.65724985  0.71828706  0.18382846    -0.40200
C1327       C  0.64878508  0.04454728  0.36341031    -0.12500
C1328       C  0.63730521  0.00486382  0.35476484     0.04500
C1329       C  0.62174407  0.98420063  0.37416132    -0.07800
C1330       C  0.61955548  0.00218450  0.40233135    -0.08500
C1331       C  0.63341497  0.04044215  0.41269748    -0.03100
C1332       C  0.64725320  0.06230538  0.39229868     0.03800
N1333       N  0.66027976  0.10222325  0.40074364     0.66300
H1334       H  0.66015093  0.06115370  0.34844181     0.15200
H1335       H  0.60862083  0.98465455  0.41718714     0.14900
N1336       N  0.60858448  0.94422809  0.36601940     0.74000
O1337       O  0.69145948  0.10701790  0.41282931    -0.39500
O1338       O  0.64109437  0.13298663  0.39177862    -0.39400
O1339       O  0.62501792  0.91362728  0.38118971    -0.40100
O1340       O  0.57829765  0.94028487  0.34871883    -0.40200
C1341       C  0.65949058  0.93698352  0.14821984    -0.12500
C1342       C  0.63560931  0.95280010  0.16122951     0.04500
C1343       C  0.61208179  0.98190423  0.14302593    -0.07800
C1344       C  0.61428959  0.99692464  0.11395994    -0.08500
C1345       C  0.64004854  0.98467642  0.10232057    -0.03100
C1346       C  0.66172699  0.95261368  0.11873588     0.03800
N1347       N  0.68689084  0.93710866  0.10679450     0.66300
H1348       H  0.67782112  0.91450960  0.16201173     0.15200
H1349       H  0.59601824  0.01987039  0.10086337     0.14900
N1350       N  0.58674294  0.99824759  0.15456443     0.74000
O1351       O  0.71652736  0.94938323  0.11873502    -0.39500
O1352       O  0.68036578  0.90776322  0.08708201    -0.39400
O1353       O  0.57960934  0.03591330  0.15143269    -0.40100
O1354       O  0.56989979  0.97478360  0.16579200    -0.40200
C1355       C  0.00476535  0.04538235  0.22983496    -0.12500
C1356       C  0.98558863  0.03570546  0.24906047     0.04500
C1357       C  0.99680371  0.00333386  0.27204050    -0.07800
C1358       C  0.52401397  0.97539842  0.27347089    -0.08500
C1359       C  0.54372832  0.98640871  0.25467061    -0.03100
C1360       C  0.53372951  0.02222087  0.23457636     0.03800
N1361       N  0.55177106  0.03654524  0.21444064     0.66300
H1362       H  0.99627136  0.06965236  0.21180766     0.15200
H1363       H  0.53119413  0.94917980  0.28966064     0.14900
N1364       N  0.97949208  0.99449455  0.29428776     0.74000
O1365       O  0.53594641  0.04266320  0.18453896    -0.39500
O1366       O  0.57888280  0.05489857  0.22750966    -0.39400
O1367       O  0.97233076  0.95819982  0.29872617    -0.40100
O1368       O  0.97381818  0.02259212  0.31154798    -0.40200
C1369       C  0.72551011  0.01682288  0.22199109    -0.12500
C1370       C  0.72973331  0.00782382  0.25462868     0.04500
C1371       C  0.76154533  0.00754689  0.27835660    -0.07800
C1372       C  0.78925473  0.01322141  0.26881347    -0.08500
C1373       C  0.78523962  0.02015624  0.23589039    -0.03100
C1374       C  0.75311023  0.02327583  0.21224256     0.03800
N1375       N  0.74826969  0.03143775  0.17846018     0.66300
H1376       H  0.70077675  0.01557260  0.20368229     0.15200
H1377       H  0.81393296  0.01357579  0.28726992     0.14900
N1378       N  0.76587788  0.00077740  0.31195389     0.74000
O1379       O  0.76910232  0.01826972  0.16583482    -0.39500
O1380       O  0.72172039  0.04884484  0.16041966    -0.39400
O1381       O  0.77127110  0.96519005  0.32391326    -0.40100
O1382       O  0.76229412  0.03012262  0.32920847    -0.40200
C1383       C  0.49469668  0.62878747  0.08920327    -0.12500
C1384       C  0.96629618  0.63198145  0.09838368     0.04500
C1385       C  0.97016407  0.63821428  0.13143497    -0.07800
C1386       C  0.50166624  0.63726044  0.15461161    -0.08500
C1387       C  0.53085801  0.63200393  0.14622396    -0.03100
C1388       C  0.52686486  0.62864974  0.11285374     0.03800
N1389       N  0.55518688  0.62447009  0.10244303     0.66300
H1390       H  0.49259727  0.62486663  0.06392970     0.15200
H1391       H  0.50378244  0.64033925  0.17995835     0.14900
N1392       N  0.94161265  0.64569771  0.14103212     0.74000
O1393       O  0.56517281  0.58937925  0.09769642    -0.39500
O1394       O  0.56664981  0.65557083  0.09300675    -0.39400
O1395       O  0.93286463  0.61951290  0.15771224    -0.40100
O1396       O  0.92709960  0.68018018  0.13555321    -0.40200
C1397       C  0.89557040  0.44392117  0.14757951    -0.12500
C1398       C  0.87154483  0.45888855  0.16067622     0.04500
C1399       C  0.84752677  0.48746814  0.14250199    -0.07800
C1400       C  0.84940230  0.50324481  0.11358015    -0.08500
C1401       C  0.87524872  0.49183015  0.10194280    -0.03100
C1402       C  0.89756037  0.46020298  0.11825344     0.03800
N1403       N  0.92324380  0.44593902  0.10649308     0.66300
H1404       H  0.91435901  0.42188755  0.16131938     0.15200
H1405       H  0.83065870  0.52575868  0.10051642     0.14900
N1406       N  0.82152707  0.50196507  0.15364086     0.74000
O1407       O  0.94885271  0.46710181  0.11038135    -0.39500
O1408       O  0.92127067  0.41103292  0.09391369    -0.39400
O1409       O  0.81611208  0.53988757  0.15420780    -0.40100
O1410       O  0.80044925  0.47719352  0.15702318    -0.40200
C1411       C  0.88900320  0.54183785  0.36616427    -0.12500
C1412       C  0.87330778  0.50472556  0.35526984     0.04500
C1413       C  0.85617995  0.48539784  0.37384928    -0.07800
C1414       C  0.85595085  0.50238100  0.40315297    -0.08500
C1415       C  0.87351727  0.53806335  0.41545783    -0.03100
C1416       C  0.88974817  0.55827346  0.39622186     0.03800
N1417       N  0.90802375  0.59475200  0.40719277     0.66300
H1418       H  0.90222387  0.55703387  0.35216628     0.15200
H1419       H  0.84331324  0.48609818  0.41715751     0.14900
N1420       N  0.83927546  0.44784159  0.36354801     0.74000
O1421       O  0.93889362  0.59237160  0.42328316    -0.39500
O1422       O  0.89515218  0.62870676  0.39534430    -0.39400
O1423       O  0.85370480  0.41456388  0.37534662    -0.40100
O1424       O  0.80819893  0.44845191  0.34834104    -0.40200
C1425       C  0.75897412  0.53894817  0.02415037    -0.12500
C1426       C  0.77499541  0.53460950  0.00100414     0.04500
C1427       C  0.76420206  0.50430896  0.47749937    -0.07800
C1428       C  0.73640769  0.48048675  0.47610631    -0.08500
C1429       C  0.72067923  0.48402763  0.49961053    -0.03100
C1430       C  0.73169359  0.51426623  0.02338343     0.03800
N1431       N  0.71774799  0.51895278  0.04880858     0.66300
H1432       H  0.76915064  0.55958372  0.04435141     0.15200
H1433       H  0.72652347  0.45987630  0.45584496     0.14900
N1434       N  0.77909005  0.49910878  0.45282807     0.74000
O1435       O  0.72112545  0.49062459  0.06942566    -0.39500
O1436       O  0.70523149  0.55285866  0.05274043    -0.39400
O1437       O  0.79237738  0.46528210  0.45000950    -0.40100
O1438       O  0.77574539  0.52676687  0.43169167    -0.40200
C1439       C  0.50116642  0.54347837  0.01065256    -0.12500
C1440       C  0.97302101  0.51835515  0.00230320     0.04500
C1441       C  0.97068630  0.49012746  0.47719357    -0.07800
C1442       C  0.49472355  0.48631622  0.46195360    -0.08500
C1443       C  0.52357665  0.50987856  0.47288709    -0.03100
C1444       C  0.52578390  0.53827810  0.99664556     0.03800
N1445       N  0.55526912  0.56230108  0.00776330     0.66300
H1446       H  0.00459232  0.56649083  0.02999317     0.15200
H1447       H  0.49354794  0.46131445  0.44537504     0.14900
N1448       N  0.94383010  0.46167178  0.46846585     0.74000
O1449       O  0.55991264  0.58994802  0.98960830    -0.39500
O1450       O  0.57522203  0.55824296  0.03660899    -0.39400
O1451       O  0.92757304  0.45551642  0.43878384    -0.40100
O1452       O  0.94112420  0.43688949  0.48963642    -0.40200
C1453       C  0.79549497  0.86388922  0.36848132    -0.12500
C1454       C  0.79412167  0.86399043  0.40008571     0.04500
C1455       C  0.76250552  0.85994005  0.40408649    -0.07800
C1456       C  0.73302578  0.86232065  0.37688998    -0.08500
C1457       C  0.73423538  0.86638401  0.34533396    -0.03100
C1458       C  0.76602117  0.86386340  0.34108589     0.03800
N1459       N  0.76883890  0.86198926  0.30920290     0.66300
H1460       H  0.81950929  0.86560625  0.36501568     0.15200
H1461       H  0.70908891  0.86253038  0.38063411     0.14900
N1462       N  0.75997757  0.85450387  0.43580407     0.74000
O1463       O  0.79135147  0.88152131  0.30291848    -0.39500
O1464       O  0.75161505  0.83689218  0.28863131    -0.39400
O1465       O  0.74007678  0.87651106  0.44470279    -0.40100
O1466       O  0.77603399  0.82584071  0.45414794    -0.40200
C1467       C  0.89909191  0.76667991  0.47931766    -0.12500
C1468       C  0.89478208  0.79311352  0.50276196     0.04500
C1469       C  0.88235503  0.77813367  0.02632405    -0.07800
C1470       C  0.87218799  0.73746933  0.02449604    -0.08500
C1471       C  0.87594986  0.70992608  0.50130403    -0.03100
C1472       C  0.88969682  0.72562649  0.47820780     0.03800
N1473       N  0.89347727  0.70074865  0.45278723     0.66300
H1474       H  0.90730414  0.77865113  0.46012813     0.15200
H1475       H  0.86256333  0.72606514  0.04288082     0.14900
N1476       N  0.87841685  0.80336514  0.05159206     0.74000
O1477       O  0.86815088  0.69230353  0.42855223    -0.39500
O1478       O  0.92233895  0.69200292  0.45236335    -0.39400
O1479       O  0.85055486  0.80573280  0.05592377    -0.40100
O1480       O  0.90320637  0.82180702  0.07060570    -0.40200
C1481       C  0.99004675  0.01187355  0.01848165    -0.12500
C1482       C  0.98374690  0.97634256  0.49713267     0.04500
C1483       C  0.50200859  0.97306617  0.47231848    -0.07800
C1484       C  0.52955869  0.99852834  0.47573851    -0.08500
C1485       C  0.53896890  0.02904799  0.00327004    -0.03100
C1486       C  0.52016912  0.03320360  0.02421803     0.03800
N1487       N  0.52908867  0.06248057  0.04994944     0.66300
H1488       H  0.97409861  0.02041954  0.03230019     0.15200
H1489       H  0.54432749  0.99321052  0.46012319     0.14900
N1490       N  0.49384325  0.94283419  0.44730015     0.74000
O1491       O  0.02036941  0.10395519  0.03668326    -0.39500
O1492       O  0.53034205  0.05218501  0.07826434    -0.39400
O1493       O  0.00197634  0.93713525  0.42960951    -0.40100
O1494       O  0.49405493  0.90558562  0.45487339    -0.40200
C1495       C  0.75759817  0.98689599  0.45878365    -0.12500
C1496       C  0.78715068  0.00906928  0.47012027     0.04500
C1497       C  0.77945660  0.03959185  0.97792589    -0.07800
C1498       C  0.75403378  0.04804004  0.99051305    -0.08500
C1499       C  0.73064159  0.01791930  0.99083207    -0.03100
C1500       C  0.73285206  0.99145153  0.47294380     0.03800
N1501       N  0.70477512  0.96481190  0.46277397     0.66300
H1502       H  0.75588512  0.96188523  0.44208301     0.15200
H1503       H  0.75325889  0.07674928  0.00007296     0.14900
N1504       N  0.80677328  0.06725589  0.98432194     0.74000
O1505       O  0.69018013  0.95865678  0.43276903    -0.39500
O1506       O  0.69997204  0.94043421  0.48317446    -0.39400
O1507       O  0.83231851  0.07861821  0.48327471    -0.40100
O1508       O  0.82089812  0.08047364  0.01275995    -0.40200
C1509       C  0.90569833  0.99556042  0.09381431    -0.12500
C1510       C  0.88074470  0.96836621  0.07772675     0.04500
C1511       C  0.85801435  0.95545120  0.09297985    -0.07800
C1512       C  0.85959501  0.97181049  0.12331922    -0.08500
C1513       C  0.88395016  0.00053372  0.13891397    -0.03100
C1514       C  0.90812710  0.01069307  0.12436492     0.03800
N1515       N  0.93642743  0.03482874  0.14104219     0.66300
H1516       H  0.92383851  0.00471970  0.08272800     0.15200
H1517       H  0.84094834  0.96335893  0.13394475     0.14900
N1518       N  0.83182456  0.92802747  0.07691773     0.74000
O1519       O  0.95924123  0.01958916  0.16518174    -0.39500
O1520       O  0.94148856  0.06773821  0.12844692    -0.39400
O1521       O  0.83384204  0.89117841  0.08597991    -0.40100
O1522       O  0.80630126  0.94079224  0.05413671    -0.40200
C1523       C  0.87854391  0.03577806  0.38046528    -0.12500
C1524       C  0.88809256  0.99454983  0.38694110     0.04500
C1525       C  0.89956864  0.97288679  0.36466002    -0.07800
C1526       C  0.90076703  0.99236225  0.33658667    -0.08500
C1527       C  0.88948958  0.03285196  0.32907423    -0.03100
C1528       C  0.87869712  0.05486128  0.35162333     0.03800
N1529       N  0.86744361  0.09635509  0.34547563     0.66300
H1530       H  0.87002321  0.05297686  0.39742910     0.15200
H1531       H  0.90885054  0.97459380  0.31960958     0.14900
N1532       N  0.90975989  0.93085190  0.36975121     0.74000
O1533       O  0.83652763  0.10469553  0.33549038    -0.39500
O1534       O  0.88825378  0.12478560  0.35404512    -0.39400
O1535       O  0.88779925  0.90363502  0.36183399    -0.40100
O1536       O  0.93976687  0.92106310  0.37399686    -0.40200
O1537       O  0.93108924  0.97262811  0.50415422    -0.82000
C1538       C  0.82301552  0.87453843  0.92842667     0.97400
O1539       O  0.85285415  0.87107915  0.92807875    -0.71100
O1540       O  0.87963318  0.93738793  0.91538742    -0.74700
Al1541     Al  0.89357044  0.90153657  0.95145990     1.49000
C1542       C  0.88207897  0.97538044  0.91423655     0.92600
O1543       O  0.83452128  0.99622662  0.95991255    -0.80900
O1544       O  0.87355266  0.91757887  0.53559565    -0.74500
Al1545     Al  0.88073595  0.98406533  0.98053175     1.90100
O1546       O  0.81856522  0.95189004  0.98904410    -0.73600
O1547       O  0.86556496  0.85437995  0.49719615    -0.73400
O1548       O  0.81726998  0.89230639  0.95149852    -0.79100
O1549       O  0.91011417  0.85806233  0.98337543    -0.77300
O1550       O  0.87420996  0.93048167  0.97493331    -1.13400
O1551       O  0.93692744  0.93002147  0.96954731    -0.72600
C1552       C  0.94708827  0.95997980  0.98909303     0.98100
C1553       C  0.81250238  0.98203306  0.97006319     0.94500
Al1554     Al  0.84643929  0.90676027  0.99218061     1.55600
O1555       O  0.88566018  0.99631331  0.93930384    -0.77200
C1556       C  0.89165748  0.83863055  0.99565010     0.98700
C1557       C  0.87957927  0.95367529  0.54556186     0.93600
O1558       O  0.88148298  0.98212103  0.52647374    -0.82500
O1559       O  0.85952202  0.53315560  0.96347369    -0.82000
C1560       C  0.93513160  0.62371896  0.57381854     0.97400
O1561       O  0.93212266  0.63290300  0.54482627    -0.71100
O1562       O  0.94750582  0.56494135  0.52552276    -0.74700
Al1563     Al  0.91059592  0.60223907  0.00477813     1.49000
C1564       C  0.94736097  0.53012209  0.51399706     0.92600
O1565       O  0.89415826  0.50148878  0.55552707    -0.80900
O1566       O  0.82137132  0.58431390  0.51923197    -0.74500
Al1567     Al  0.87835994  0.52003969  0.51063890     1.90100
O1568       O  0.86696347  0.54909568  0.57201277    -0.73600
O1569       O  0.86482809  0.65136079  0.52921965    -0.73400
O1570       O  0.91099750  0.60684427  0.57956221    -0.79100
O1571       O  0.87796688  0.64215141  0.98500197    -0.77300
O1572       O  0.88541285  0.57256335  0.52113698    -1.13400
O1573       O  0.89822779  0.57615710  0.96298066    -0.72600
C1574       C  0.87606887  0.55100355  0.94825280     0.98100
C1575       C  0.88089328  0.51432478  0.57577113     0.94500
Al1576     Al  0.86714211  0.59637707  0.54766433     1.55600
O1577       O  0.92159539  0.50864681  0.50760253    -0.77200
C1578       C  0.87127608  0.66521039  0.50474467     0.98700
C1579       C  0.81224040  0.54779000  0.51035954     0.93600
O1580       O  0.83353503  0.52083006  0.50976454    -0.82500
O1581       O  0.59381315  0.97549763  0.74041461    -0.82000
C1582       C  0.70386188  0.88034090  0.81951268     0.97400
O1583       O  0.67402770  0.87640106  0.81945306    -0.71100
O1584       O  0.64757714  0.94580719  0.82960020    -0.74700
Al1585     Al  0.63274108  0.90771227  0.79594614     1.49000
C1586       C  0.63940256  0.98297667  0.82737149     0.92600
O1587       O  0.68425023  0.00418799  0.77748549    -0.80900
O1588       O  0.65311950  0.91768940  0.71073934    -0.74500
Al1589     Al  0.63947487  0.98666459  0.75959897     1.90100
O1590       O  0.70457890  0.95568745  0.75461246    -0.73600
O1591       O  0.66133862  0.85667506  0.75275724    -0.73400
O1592       O  0.70923750  0.89953269  0.79687661    -0.79100
O1593       O  0.61613878  0.86406977  0.76580243    -0.77300
O1594       O  0.65026928  0.93445095  0.77005675    -1.13400
O1595       O  0.58843236  0.93643808  0.77898858    -0.72600
C1596       C  0.57638802  0.96372701  0.75684899     0.98100
C1597       C  0.70641634  0.99054677  0.76695031     0.94500
Al1598     Al  0.67945839  0.90935660  0.75505302     1.55600
O1599       O  0.63368575  0.00200772  0.80063304    -0.77200
C1600       C  0.63523031  0.84211203  0.75560188     0.98700
C1601       C  0.64552166  0.95299878  0.69858729     0.93600
O1602       O  0.64245869  0.98265666  0.71616239    -0.82500
O1603       O  0.63718630  0.52996013  0.78134959    -0.82000
C1604       C  0.56776920  0.62566713  0.67365504     0.97400
O1605       O  0.57108748  0.63720829  0.70232665    -0.71100
O1606       O  0.55391116  0.57449430  0.72670504    -0.74700
Al1607     Al  0.59107699  0.60656927  0.74245753     1.49000
C1608       C  0.55272607  0.53755790  0.73304750     0.92600
O1609       O  0.60480689  0.50480625  0.69086340    -0.80900
O1610       O  0.67987836  0.58116444  0.73050907    -0.74500
Al1611     Al  0.62074384  0.52114391  0.73607119     1.90100
O1612       O  0.63643621  0.54752571  0.67663774    -0.73600
O1613       O  0.63865996  0.65036382  0.71637988    -0.73400
O1614       O  0.59200501  0.60735222  0.66840907    -0.79100
O1615       O  0.62549282  0.64459088  0.76012056    -0.77300
O1616       O  0.61597154  0.57424264  0.72674162    -1.13400
O1617       O  0.60411067  0.58035980  0.78499921    -0.72600
C1618       C  0.62279346  0.54990342  0.79757580     0.98100
C1619       C  0.62022809  0.51502683  0.67186392     0.94500
Al1620     Al  0.63540574  0.59531571  0.70029004     1.55600
O1621       O  0.57727935  0.51368497  0.73766586    -0.77200
C1622       C  0.63482282  0.66647942  0.74114497     0.98700
C1623       C  0.68799925  0.54423568  0.74014967     0.93600
O1624       O  0.66587182  0.51818610  0.73840025    -0.82500
O1625       O  0.83079121  0.47153474  0.74060194    -0.82000
C1626       C  0.94372494  0.38222757  0.81882275     0.97400
O1627       O  0.91439753  0.37700301  0.81995249    -0.71100
O1628       O  0.88587294  0.44513571  0.82955278    -0.74700
Al1629     Al  0.87166248  0.40576539  0.79668608     1.49000
C1630       C  0.87802033  0.48238653  0.82680442     0.92600
O1631       O  0.92065816  0.50239986  0.77430022    -0.80900
O1632       O  0.88748480  0.41359150  0.70944497    -0.74500
Al1633     Al  0.87594556  0.48400404  0.75825199     1.90100
O1634       O  0.93923221  0.45379758  0.75006673    -0.73600
O1635       O  0.90001843  0.35494144  0.75343852    -0.73400
O1636       O  0.94745953  0.39993763  0.79473058    -0.79100
O1637       O  0.85558774  0.36038529  0.76784599    -0.77300
O1638       O  0.88761604  0.43230069  0.76943411    -1.13400
O1639       O  0.82658674  0.43276417  0.77988218    -0.72600
C1640       C  0.81394063  0.45954713  0.75742057     0.98100
C1641       C  0.94133750  0.48894815  0.76176292     0.94500
Al1642     Al  0.91604788  0.40743945  0.75339431     1.55600
O1643       O  0.87163134  0.50055206  0.79963296    -0.77200
C1644       C  0.87466582  0.33945082  0.75691738     0.98700
C1645       C  0.87913264  0.44856614  0.69678931     0.93600
O1646       O  0.87692726  0.47875832  0.71424019    -0.82500
O1647       O  0.89500720  0.03158367  0.77664485    -0.82000
C1648       C  0.82902166  0.12901485  0.66926078     0.97400
O1649       O  0.83010196  0.13958775  0.69747692    -0.71100
O1650       O  0.81104410  0.07280375  0.71563833    -0.74700
Al1651     Al  0.84702325  0.10580424  0.73646687     1.49000
C1652       C  0.81012200  0.03707117  0.72517636     0.92600
O1653       O  0.86600852  0.00819100  0.68590960    -0.80900
O1654       O  0.93984413  0.08500657  0.73045439    -0.74500
Al1655     Al  0.88008582  0.02286492  0.73139093     1.90100
O1656       O  0.89867706  0.05235111  0.67439306    -0.73600
O1657       O  0.89726310  0.15337434  0.71705707    -0.73400
O1658       O  0.85412432  0.11131586  0.66539049    -0.79100
O1659       O  0.88026172  0.14290199  0.75815760    -0.77300
O1660       O  0.87477595  0.07593734  0.72270363    -1.13400
O1661       O  0.85725660  0.07719529  0.77798913    -0.72600
C1662       C  0.87846234  0.04946204  0.79194141     0.98100
C1663       C  0.88229051  0.01985831  0.66797350     0.94500
Al1664     Al  0.89612929  0.09918990  0.69889933     1.55600
O1665       O  0.83557177  0.01385545  0.73180461    -0.77200
C1666       C  0.88992267  0.16714391  0.74094676     0.98700
C1667       C  0.94822837  0.04775523  0.73861275     0.93600
O1668       O  0.92613823  0.02101014  0.73526009    -0.82500
O1669       O  0.61991991  0.03030535  0.96427453    -0.82000
C1670       C  0.69637420  0.12136078  0.57200552     0.97400
O1671       O  0.69331952  0.13289377  0.54342638    -0.71100
O1672       O  0.70896721  0.06862665  0.51876094    -0.74700
Al1673     Al  0.67181557  0.09987700  0.00405528     1.49000
C1674       C  0.70921817  0.03291616  0.50892259     0.92600
O1675       O  0.65717852  0.00070345  0.55329621    -0.80900
O1676       O  0.58275983  0.08197260  0.51732941    -0.74500
Al1677     Al  0.64101310  0.02015657  0.50823062     1.90100
O1678       O  0.62851558  0.04647315  0.56947211    -0.73600
O1679       O  0.62512888  0.15002808  0.52970929    -0.73400
O1680       O  0.67221545  0.10422734  0.57749005    -0.79100
O1681       O  0.63939803  0.14151111  0.98790144    -0.77300
O1682       O  0.64696024  0.07270526  0.51884297    -1.13400
O1683       O  0.65575987  0.07631611  0.96137465    -0.72600
C1684       C  0.63422851  0.04990178  0.94781480     0.98100
C1685       C  0.64335998  0.01239019  0.57349226     0.94500
Al1686     Al  0.62840550  0.09436260  0.54604418     1.55600
O1687       O  0.68424434  0.01056204  0.50471578    -0.77200
C1688       C  0.63026550  0.16617882  0.50543602     0.98700
C1689       C  0.57431792  0.04530006  0.50815773     0.93600
O1690       O  0.59621684  0.01922351  0.50741575    -0.82500
O1691       O  0.66861394  0.47815526  0.50808814    -0.82000
C1692       C  0.56328995  0.37793942  0.92931852     0.97400
O1693       O  0.59350642  0.37416998  0.93022121    -0.71100
O1694       O  0.61817329  0.44294043  0.91996110    -0.74700
Al1695     Al  0.63347365  0.40537849  0.95443457     1.49000
C1696       C  0.62204817  0.48089196  0.92027739     0.92600
O1697       O  0.57560701  0.49962765  0.96753627    -0.80900
O1698       O  0.61110446  0.41820104  0.53733243    -0.74500
Al1699     Al  0.62138417  0.48507801  0.98727847     1.90100
O1700       O  0.55793399  0.45134740  0.99235411    -0.73600
O1701       O  0.60437023  0.35723723  0.49696006    -0.73400
O1702       O  0.55668359  0.39493706  0.95219627    -0.79100
O1703       O  0.65089152  0.36146967  0.98570489    -0.77300
O1704       O  0.61388749  0.43206910  0.97866927    -1.13400
O1705       O  0.67644403  0.43464697  0.97230915    -0.72600
C1706       C  0.68670654  0.46296049  0.99336805     0.98100
C1707       C  0.55339987  0.48459307  0.97699614     0.94500
Al1708     Al  0.58546677  0.40627910  0.99378426     1.55600
O1709       O  0.62695583  0.50034265  0.94640065    -0.77200
C1710       C  0.63230333  0.33991698  0.99647688     0.98700
C1711       C  0.61678283  0.45371191  0.54867117     0.93600
O1712       O  0.61863105  0.48364521  0.53077994    -0.82500
C1713       C  0.61812049  0.23572608  0.52211232    -0.12500
C1714       C  0.63204638  0.20938498  0.00416080     0.04500
C1715       C  0.64856317  0.22868423  0.98474623    -0.07800
C1716       C  0.65125643  0.27137060  0.98468194    -0.08500
C1717       C  0.63842580  0.29572192  0.00412355    -0.03100
C1718       C  0.62135648  0.27821883  0.52284946     0.03800
N1719       N  0.60880116  0.30116208  0.54422775     0.66300
H1720       H  0.60615403  0.22156614  0.53769672     0.15200
H1721       H  0.66220406  0.28558190  0.96827090     0.14900
N1722       N  0.66336135  0.20554622  0.96531959     0.74000
O1723       O  0.57809509  0.30048666  0.54071437    -0.39500
O1724       O  0.62880082  0.31950422  0.56818472    -0.39400
O1725       O  0.64879384  0.20400419  0.93489544    -0.40100
O1726       O  0.69350588  0.19388462  0.97741232    -0.40200
C1727       C  0.78538034  0.09433562  0.62556879    -0.12500
C1728       C  0.79647091  0.13076389  0.64205395     0.04500
C1729       C  0.77415270  0.16458196  0.63580995    -0.07800
C1730       C  0.74132877  0.16126604  0.61330704    -0.08500
C1731       C  0.72984446  0.12401383  0.59789602    -0.03100
C1732       C  0.75244642  0.09023740  0.60424766     0.03000
N1733       N  0.74230271  0.05109461  0.58998970     0.66300
H1734       H  0.80194217  0.06778080  0.63098194     0.15200
H1735       H  0.72477687  0.18777792  0.60792058     0.14900
N1736       N  0.78488225  0.20277534  0.65119826     0.74000
O1737       O  0.71563441  0.03586912  0.59100634    -0.39500
O1738       O  0.76276149  0.02854419  0.58232095    -0.39400
O1739       O  0.79755429  0.22866881  0.63752864    -0.40100
O1740       O  0.77732788  0.21293595  0.67573888    -0.40200
C1741       C  0.97298180  0.36166035  0.87711775    -0.12500
C1742       C  0.97462297  0.36968285  0.84611988     0.04500
C1743       C  0.50719145  0.37042912  0.84177113    -0.07800
C1744       C  0.53629002  0.36961726  0.86939588    -0.08500
C1745       C  0.53441371  0.36560360  0.90064602    -0.03100
C1746       C  0.50281740  0.35829157  0.90377817     0.03800
N1747       N  0.99945608  0.34943319  0.93561539     0.66300
H1748       H  0.94890133  0.35907481  0.88033238     0.15200
H1749       H  0.56030819  0.37421684  0.86644497     0.14900
N1750       N  0.51069704  0.37339746  0.81029633     0.74000
O1751       O  0.98104200  0.37114911  0.94666004    -0.39500
O1752       O  0.51315897  0.31633733  0.94956266    -0.39400
O1753       O  0.52799232  0.40132839  0.80430938    -0.40100
O1754       O  0.49980337  0.34535962  0.78982300    -0.40200
C1755       C  0.87887794  0.28122457  0.72326350    -0.12500
C1756       C  0.87065508  0.29552524  0.74994255     0.04500
C1757       C  0.86878630  0.26740999  0.77368510    -0.07800
C1758       C  0.87638061  0.22600865  0.77101647    -0.08500
C1759       C  0.88613388  0.21185264  0.74498121    -0.03100
C1760       C  0.88667430  0.24013845  0.72059593     0.03800
N1761       N  0.89529538  0.22795534  0.69297571     0.66300
H1762       H  0.88097791  0.30267321  0.70507457     0.15200
H1763       H  0.87490594  0.20492022  0.78966283     0.14900
N1764       N  0.86166682  0.28082943  0.80181688     0.74000
O1765       O  0.87254275  0.21897120  0.66673732    -0.39500
O1766       O  0.92482929  0.23228618  0.69323213    -0.39400
O1767       O  0.83281080  0.27622410  0.80333205    -0.40100
O1768       O  0.88518716  0.29187454  0.82679389    -0.40200
C1769       C  0.76206287  0.47070167  0.77217168    -0.12500
C1770       C  0.78133625  0.48158432  0.75300673     0.04500
C1771       C  0.77086474  0.51697370  0.73252621    -0.07800
C1772       C  0.74256284  0.53985403  0.73197046    -0.08500
C1773       C  0.72290330  0.52805267  0.75009089    -0.03100
C1774       C  0.73324216  0.49340024  0.77096673     0.03800
N1775       N  0.71457051  0.48075617  0.79106985     0.66300
H1776       H  0.76942581  0.44447576  0.78834182     0.15200
H1777       H  0.73442204  0.56536646  0.71506774     0.14900
N1778       N  0.78689157  0.52933728  0.71015711     0.74000
O1779       O  0.70535535  0.44423298  0.79045091    -0.39500
O1780       O  0.71033824  0.50489424  0.81187808    -0.39400
O1781       O  0.76931795  0.53180750  0.68036717    -0.40100
O1782       O  0.81297922  0.55034800  0.72046045    -0.40200
C1783       C  0.52600219  0.52388953  0.77284375    -0.12500
C1784       C  0.52379762  0.52463459  0.74001328     0.04500
C1785       C  0.49292950  0.52264535  0.71498201    -0.07800
C1786       C  0.96446795  0.51793427  0.72386565    -0.08500
C1787       C  0.96669796  0.51381133  0.75663833    -0.03100
C1788       C  0.99746605  0.51745030  0.78172567     0.03800
N1789       N  0.99998443  0.51413478  0.81518429     0.66300
H1790       H  0.54990649  0.52759846  0.79202536     0.15200
H1791       H  0.94071105  0.51352827  0.70456571     0.14900
N1792       N  0.49085113  0.52201136  0.68145024     0.74000
O1793       O  0.50235390  0.47866773  0.82722828    -0.39500
O1794       O  0.00145182  0.54602562  0.83171393    -0.39400
O1795       O  0.50999566  0.49871872  0.67253375    -0.40100
O1796       O  0.46847480  0.54254300  0.66031557    -0.40200
C1797       C  0.62366206  0.47544628  0.86433963    -0.12500
C1798       C  0.62242113  0.50098279  0.88967496     0.04500
C1799       C  0.62258748  0.54374569  0.88500696    -0.07800
C1800       C  0.62342465  0.55974565  0.85518255    -0.08500
C1801       C  0.62461381  0.53371074  0.82999484    -0.03100
C1802       C  0.62454710  0.49105585  0.83496311     0.03800
N1803       N  0.62285357  0.46275397  0.80957690     0.66300
H1804       H  0.62348078  0.44254682  0.86693402     0.15200
H1805       H  0.62291174  0.59252715  0.85162855     0.14900
N1806       N  0.62134871  0.57125917  0.90991255     0.74000
O1807       O  0.64720232  0.43865305  0.81281197    -0.39500
O1808       O  0.59473965  0.45487915  0.78881618    -0.39400
O1809       O  0.64741020  0.58947806  0.92670112    -0.40100
O1810       O  0.59363406  0.58039655  0.91297826    -0.40200
C1811       C  0.64836253  0.47681664  0.60397551    -0.12500
C1812       C  0.61888316  0.46127645  0.58243980     0.04500
C1813       C  0.59059510  0.45763103  0.59229834    -0.07800
C1814       C  0.59156384  0.47273607  0.62276457    -0.08500
C1815       C  0.62082089  0.49017131  0.64379598    -0.03100
C1816       C  0.64986609  0.49002859  0.63478872     0.03800
N1817       N  0.68115545  0.50355689  0.65680063     0.66300
H1818       H  0.67028916  0.47895509  0.59672369     0.15200
H1819       H  0.56908442  0.47272957  0.62921432     0.14900
N1820       N  0.56010129  0.44151414  0.57063392     0.74000
O1821       O  0.69620159  0.48250464  0.68191091    -0.39500
O1822       O  0.69596608  0.53266540  0.64877363    -0.39400
O1823       O  0.55760750  0.40363281  0.56543629    -0.40100
O1824       O  0.53490277  0.46465568  0.55851767    -0.40200
C1825       C  0.62691977  0.72945047  0.77032192    -0.12500
C1826       C  0.63633127  0.71173404  0.74524500     0.04500
C1827       C  0.64226858  0.73799517  0.72196838    -0.07800
C1828       C  0.63920533  0.78037765  0.72444370    -0.08500
C1829       C  0.63000008  0.79788422  0.74955590    -0.03100
C1830       C  0.62361749  0.77195345  0.77254667     0.03800
N1831       N  0.61585476  0.78837975  0.79949321     0.66300
H1832       H  0.62172238  0.71023670  0.78825347     0.15200
H1833       H  0.64502835  0.79991981  0.70703589     0.14900
N1834       N  0.65156605  0.72235598  0.69563763     0.74000
O1835       O  0.58604570  0.79808000  0.79619481    -0.39500
O1836       O  0.63804449  0.78904563  0.82737604    -0.39400
O1837       O  0.63007972  0.72083363  0.66739972    -0.40100
O1838       O  0.68198675  0.71545775  0.69963739    -0.40200
C1839       C  0.64383754  0.04322517  0.86404204    -0.12500
C1840       C  0.63437609  0.00275519  0.85597132     0.04500
C1841       C  0.62034889  0.98061399  0.87595718    -0.07800
C1842       C  0.61788813  0.99807556  0.90424296    -0.08500
C1843       C  0.62945228  0.03751168  0.91372864    -0.03100
C1844       C  0.64163604  0.06065555  0.89273082     0.03800
N1845       N  0.65214836  0.10172057  0.90032503     0.66300
H1846       H  0.65394812  0.06093556  0.84861304     0.15200
H1847       H  0.60838536  0.97958575  0.91972369     0.14900
N1848       N  0.60854606  0.94003240  0.86796333     0.74000
O1849       O  0.68281653  0.11003759  0.90921713    -0.39500
O1850       O  0.63060273  0.13023922  0.89426776    -0.39400
O1851       O  0.62485687  0.91017339  0.88445232    -0.40100
O1852       O  0.57952256  0.93463348  0.84799193    -0.40200
C1853       C  0.66712435  0.94726560  0.65176551    -0.12500
C1854       C  0.64207848  0.96079479  0.66407487     0.04500
C1855       C  0.61627232  0.98633635  0.64454883    -0.07800
C1856       C  0.61630181  0.99887770  0.61402838    -0.08500
C1857       C  0.64235956  0.98825362  0.60227904    -0.03100
C1858       C  0.66757364  0.96074113  0.62099169     0.03800
N1859       N  0.69434974  0.94777706  0.61010972     0.66300
H1860       H  0.68725151  0.92768037  0.66677800     0.15200
H1861       H  0.59603141  0.01885875  0.59980802     0.14900
N1862       N  0.59037092  0.00124627  0.65583722     0.74000
O1863       O  0.72406538  0.94721615  0.62969868    -0.39500
O1864       O  0.68791559  0.93096721  0.58271540    -0.39400
O1865       O  0.58180363  0.03848685  0.65212279    -0.40100
O1866       O  0.57425507  0.97676889  0.66707859    -0.40200
C1867       C  0.00298890  0.04342103  0.73013558    -0.12500
C1868       C  0.98352841  0.03246096  0.74878631     0.04500
C1869       C  0.99477254  0.99952502  0.77117792    -0.07800
C1870       C  0.52445343  0.97495110  0.77177922    -0.08500
C1871       C  0.54378030  0.98607394  0.75259641    -0.03100
C1872       C  0.53324625  0.02167042  0.73235196     0.03800
N1873       N  0.55062200  0.03581194  0.71156350     0.66300
H1874       H  0.99436358  0.06801086  0.71241256     0.15200
H1875       H  0.53217484  0.94908883  0.78829672     0.14900
N1876       N  0.97700135  0.98918867  0.79270256     0.74000
O1877       O  0.53436575  0.04059319  0.68159604    -0.39500
O1878       O  0.57731137  0.05526595  0.72387543    -0.39400
O1879       O  0.96875868  0.95276489  0.79503265    -0.40100
O1880       O  0.97182534  0.01592839  0.81129475    -0.40200
C1881       C  0.72494765  0.03585369  0.73355287    -0.12500
C1882       C  0.73254468  0.01597404  0.76371876     0.04500
C1883       C  0.76568489  0.00511395  0.78160558    -0.07800
C1884       C  0.79026675  0.00941669  0.76738386    -0.08500
C1885       C  0.78234757  0.02670244  0.73608267    -0.03100
C1886       C  0.74970852  0.04188026  0.71977585     0.03800
N1887       N  0.74096557  0.06136031  0.68852910     0.66300
H1888       H  0.69916365  0.04336428  0.71932893     0.15200
H1889       H  0.81578421  0.00042652  0.78126851     0.14900
N1890       N  0.77422469  0.98854676  0.81381437     0.74000
O1891       O  0.72406440  0.04222780  0.66343560    -0.39500
O1892       O  0.74359946  0.09955476  0.68683753    -0.39400
O1893       O  0.77918999  0.95069076  0.81873177    -0.40100
O1894       O  0.77691596  0.01191711  0.83747792    -0.40200
C1895       C  0.49770766  0.62535823  0.59036729    -0.12500
C1896       C  0.96846126  0.62966034  0.59984025     0.04500
C1897       C  0.97253190  0.63531213  0.63299353    -0.07800
C1898       C  0.50528815  0.63761884  0.65553477    -0.08500
C1899       C  0.53431048  0.63097641  0.64710379    -0.03100
C1900       C  0.52999354  0.62546237  0.61380718     0.03800
N1901       N  0.55804378  0.61910443  0.60325526     0.66300
H1902       H  0.49535186  0.62016778  0.56517794     0.15200
H1903       H  0.50761037  0.64217080  0.68079910     0.14900
N1904       N  0.94412333  0.64230278  0.64291366     0.74000
O1905       O  0.56809532  0.58320722  0.60088980    -0.39500
O1906       O  0.56854290  0.64834628  0.59067952    -0.39400
O1907       O  0.93638348  0.61635525  0.66047670    -0.40100
O1908       O  0.92889572  0.67632651  0.63700286    -0.40200
C1909       C  0.89976597  0.44213392  0.64950511    -0.12500
C1910       C  0.87506774  0.45600672  0.66213554     0.04500
C1911       C  0.85049304  0.48377249  0.64363888    -0.07800
C1912       C  0.85240776  0.49981907  0.61480637    -0.08500
C1913       C  0.87885204  0.48969160  0.60366330    -0.03100
C1914       C  0.90197548  0.45893477  0.62039145     0.03800
N1915       N  0.92866726  0.44615040  0.60941273     0.66300
H1916       H  0.91900573  0.42082992  0.66361347     0.15200
H1917       H  0.83314658  0.52154323  0.60134926     0.14900
N1918       N  0.82389198  0.49723799  0.65436698     0.74000
O1919       O  0.95011362  0.47143000  0.60760838    -0.39500
O1920       O  0.93258334  0.40882984  0.60435237    -0.39400
O1921       O  0.81544861  0.53452949  0.65185229    -0.40100
O1922       O  0.80570783  0.47133103  0.66147698    -0.40200
C1923       C  0.89061418  0.54008655  0.86657866    -0.12500
C1924       C  0.87426298  0.50341396  0.85547074     0.04500
C1925       C  0.85497849  0.48592334  0.87277087    -0.07800
C1926       C  0.85365974  0.50402061  0.90134665    -0.08500
C1927       C  0.87216010  0.53891329  0.91414643    -0.03100
C1928       C  0.89008636  0.55766400  0.89582780     0.03800
N1929       N  0.90869756  0.59387772  0.90693346     0.66300
H1930       H  0.90512537  0.55415638  0.85332680     0.15200
H1931       H  0.83954776  0.48903001  0.91456835     0.14900
N1932       N  0.83683714  0.44926226  0.86193189     0.74000
O1933       O  0.93966902  0.59120330  0.92251813    -0.39500
O1934       O  0.89566090  0.62815736  0.89617047    -0.39400
O1935       O  0.85148455  0.41521070  0.87057333    -0.40100
O1936       O  0.80530036  0.45084947  0.85126350    -0.40200
C1937       C  0.76144041  0.53701475  0.52612067    -0.12500
C1938       C  0.77731876  0.53284581  0.50285282     0.04500
C1939       C  0.76231269  0.50539873  0.97606840    -0.07800
C1940       C  0.73506624  0.48083907  0.97516768    -0.08500
C1941       C  0.71930773  0.48442403  0.99863324    -0.03100
C1942       C  0.73375395  0.51290038  0.52498701     0.03800
N1943       N  0.72015931  0.51701364  0.55071376     0.66300
H1944       H  0.77202247  0.55702846  0.54666883     0.15200
H1945       H  0.72561375  0.45957972  0.95529452     0.14900
N1946       N  0.77719881  0.50012933  0.95139679     0.74000
O1947       O  0.72254651  0.48764874  0.57023130    -0.39500
O1948       O  0.70934257  0.55128085  0.55625752    -0.39400
O1949       O  0.79039768  0.46625204  0.94854648    -0.40100
O1950       O  0.77403571  0.52785081  0.93034716    -0.40200
C1951       C  0.50165828  0.54500792  0.50960251    -0.12500
C1952       C  0.97458154  0.51955899  0.50180751     0.04500
C1953       C  0.96892116  0.48950813  0.97722342    -0.07800
C1954       C  0.49378202  0.48374255  0.96360221    -0.08500
C1955       C  0.52302625  0.50653257  0.97457620    -0.03100
C1956       C  0.52568082  0.54162174  0.49473835     0.03800
N1957       N  0.55426731  0.56723074  0.50504205     0.66300
H1958       H  0.00467642  0.57026830  0.52713661     0.15200
H1959       H  0.49223178  0.45846766  0.94717506     0.14900
N1960       N  0.94085409  0.46287985  0.96677629     0.74000
O1961       O  0.55639692  0.59671152  0.48718908    -0.39500
O1962       O  0.57543072  0.56322367  0.53333491    -0.39400
O1963       O  0.92543266  0.45825187  0.93671283    -0.40100
O1964       O  0.93623194  0.43777696  0.98680837    -0.40200
C1965       C  0.79467792  0.85952736  0.86934304    -0.12500
C1966       C  0.79335577  0.86082780  0.90095600     0.04500
C1967       C  0.76177297  0.85691789  0.90513957    -0.07800
C1968       C  0.73226752  0.86058973  0.87798009    -0.08500
C1969       C  0.73363508  0.86451717  0.84649370    -0.03100
C1970       C  0.76513273  0.85947672  0.84203859     0.03800
N1971       N  0.76741961  0.85470689  0.81004737     0.66300
H1972       H  0.81870824  0.86018343  0.86583792     0.15200
H1973       H  0.70827926  0.86184420  0.88159195     0.14900
N1974       N  0.75943244  0.84985596  0.93684446     0.74000
O1975       O  0.79277126  0.86699022  0.80404597    -0.39500
O1976       O  0.74643883  0.83315733  0.78917682    -0.39400
O1977       O  0.73559084  0.86525699  0.94423713    -0.40100
O1978       O  0.77897702  0.82437071  0.95610271    -0.40200
C1979       C  0.89967429  0.76800784  0.97937505    -0.12500
C1980       C  0.89520449  0.79426018  0.00288298     0.04500
C1981       C  0.88245213  0.77720062  0.52661718    -0.07800
C1982       C  0.87291219  0.73630469  0.52548772    -0.08500
C1983       C  0.87524686  0.71136986  0.00017712    -0.03100
C1984       C  0.88976221  0.72707863  0.97767724     0.03800
N1985       N  0.89379609  0.70237374  0.95227174     0.66300
H1986       H  0.90833065  0.78009014  0.96051664     0.15200
H1987       H  0.86384479  0.72496163  0.54427980     0.14900
N1988       N  0.87881537  0.80273824  0.55183281     0.74000
O1989       O  0.86863007  0.69404338  0.92783833    -0.39500
O1990       O  0.92275139  0.69363983  0.95210189    -0.39400
O1991       O  0.85092762  0.80592518  0.55602624    -0.40100
O1992       O  0.90398745  0.82012127  0.57123820    -0.40200
C1993       C  0.99224014  0.00996100  0.51871814    -0.12500
C1994       C  0.98127597  0.97858474  0.99658436     0.04500
C1995       C  0.50090926  0.97427983  0.97425426    -0.07800
C1996       C  0.52855207  0.99973515  0.97827256    -0.08500
C1997       C  0.53958650  0.02899662  0.49982671    -0.03100
C1998       C  0.52062788  0.03416308  0.52052190     0.03800
N1999       N  0.52919168  0.06461931  0.54533532     0.66300
H2000       H  0.97676617  0.01782010  0.53317341     0.15200
H2001       H  0.54321471  0.99514216  0.96246043     0.14900
N2002       N  0.49259321  0.94495426  0.94854926     0.74000
O2003       O  0.02210334  0.10383417  0.53464593    -0.39500
O2004       O  0.53255421  0.05506316  0.57435183    -0.39400
O2005       O  0.00109256  0.93863011  0.93016295    -0.40100
O2006       O  0.49264042  0.90744731  0.95529040    -0.40200
C2007       C  0.75316139  0.97517327  0.95784306    -0.12500
C2008       C  0.78021623  0.00168968  0.96362219     0.04500
C2009       C  0.79014691  0.04057549  0.49252668    -0.07800
C2010       C  0.76532754  0.04573082  0.50650286    -0.08500
C2011       C  0.73694336  0.02079502  0.49768840    -0.03100
C2012       C  0.72899711  0.98221836  0.97244060     0.03800
N2013       N  0.70429696  0.95186345  0.96953914     0.66300
H2014       H  0.75376711  0.94628179  0.94657800     0.15200
H2015       H  0.76825220  0.06964420  0.52432187     0.14900
N2016       N  0.81977170  0.06470731  0.50351555     0.74000
O2017       O  0.68559070  0.94112870  0.94164238    -0.39500
O2018       O  0.70538250  0.93072405  0.99414575    -0.39400
O2019       O  0.81701518  0.07828560  0.96162511    -0.40100
O2020       O  0.83277767  0.07348453  0.53327476    -0.40200
C2021       C  0.90991216  0.98474995  0.59836522    -0.12500
C2022       C  0.88194363  0.96393680  0.57900117     0.04500
C2023       C  0.85492192  0.95770119  0.59033883    -0.07800
C2024       C  0.85565595  0.97436415  0.62024422    -0.08500
C2025       C  0.88337405  0.99652436  0.63924944    -0.03100
C2026       C  0.91122223  0.00010233  0.62853947     0.03800
N2027       N  0.94148668  0.01843310  0.64847785     0.66300
H2028       H  0.93088813  0.98920314  0.58994595     0.15200
H2029       H  0.83403096  0.97148415  0.62787849     0.14900
N2030       N  0.82557150  0.93739164  0.57053677     0.74000
O2031       O  0.96175025  0.99780398  0.67135184    -0.39500
O2032       O  0.95069864  0.05158380  0.63963928    -0.39400
O2033       O  0.82498190  0.89890797  0.56982368    -0.40100
O2034       O  0.80001146  0.95788341  0.55412712    -0.40200
C2035       C  0.86847561  0.03487944  0.87533910    -0.12500
C2036       C  0.88177281  0.99514482  0.88343638     0.04500
C2037       C  0.89559698  0.97507619  0.86219905    -0.07800
C2038       C  0.89604995  0.99478539  0.83392997    -0.08500
C2039       C  0.88166679  0.03382980  0.82499328    -0.03100
C2040       C  0.86774061  0.05398519  0.84612728     0.03800
N2041       N  0.85252860  0.09356388  0.83823628     0.66300
H2042       H  0.85782442  0.05078454  0.89135560     0.15200
H2043       H  0.90646108  0.97820342  0.81804239     0.14900
N2044       N  0.90934233  0.93453321  0.86875260     0.74000
O2045       O  0.82121618  0.09702309  0.82497757    -0.39500
O2046       O  0.86971759  0.12495644  0.84830142    -0.39400
O2047       O  0.88987007  0.90460256  0.86223782    -0.40100
O2048       O  0.93988233  0.92849573  0.87283262    -0.40200
loop_ 
_geom_bond_atom_site_label_1 
_geom_bond_atom_site_label_2 
_geom_bond_distance 
_geom_bond_site_symmetry_2 
_ccdc_geom_bond_type 
O1          C528   1.258   1_554  A
O1         Al521   1.868   1_554  S
C2           O12   1.255       .  A
C2            O3   1.277       .  A
C2          C430   1.491       .  S
O3           Al5   1.978       .  S
O4            C6   1.254       .  A
O4           Al5   1.877       .  S
Al5          O13   1.940       .  S
Al5          O15   2.001       .  S
Al5          O14   1.783       .  S
C6           O19   1.264       .  A
C6          C500   1.487       .  S
O7           C17   1.257       .  A
O7           Al9   1.897       .  S
O8           C21   1.261       .  A
O8         Al530   1.886   1_554  S
Al9          O19   1.939       .  S
Al9         O513   1.870       .  S
Al9         O534   1.940       .  S
Al9          O14   1.784       .  S
O10          C17   1.254       .  A
O10         Al18   1.861       .  S
O11         C532   1.251       .  A
O11        Al530   1.861       .  S
O12         Al18   1.851       .  S
O13          C20   1.269       .  A
O14         Al18   1.779       .  S
O15          C16   1.282       .  A
C16         O513   1.258       .  A
C16         C458   1.516       .  S
C17         C472   1.442   1_565  S
Al18        O520   1.885       .  S
Al18        O523   1.858       .  S
C20         O523   1.251       .  A
C20         C444   1.482       .  S
C21          O22   1.269       .  A
C21         C486   1.470       .  S
O22        Al521   1.940   1_554  S
O23          C38   1.266       .  A
O23        Al543   1.908       .  S
C24          O34   1.269       .  A
C24          O25   1.261       .  A
C24         C360   1.501       .  S
O25        Al539   1.919       .  S
O26          C28   1.249       .  A
O26        Al539   1.852       .  S
Al27         O35   1.872       .  S
Al27         O37   1.929       .  S
Al27        O537   1.920       .  S
Al27        O538   1.848       .  S
Al27        O548   1.771       .  S
C28          O41   1.260       .  A
C28         C416   1.465       .  S
O29          C39   1.268       .  A
O29         Al31   1.936       .  S
O30          C43   1.284       .  A
O30         Al40   1.969       .  S
Al31         O44   1.889       .  S
Al31         O41   1.911       .  S
Al31        O535   1.911   1_554  S
Al31         O36   1.786       .  S
O32          C39   1.259       .  A
O32         Al40   1.874       .  S
O33          C42   1.271       .  A
O33         Al40   1.955       .  S
O34         Al40   1.948       .  S
O35         C554   1.255       .  A
O36         Al40   1.777       .  S
O36        Al539   1.775       .  S
O37          C38   1.264       .  A
C38         C391   1.495       .  S
C39         C377   1.486       .  S
C42         O547   1.255   1_554  A
C42         C959   1.496   1_554  S
C43          O44   1.262       .  A
C43         C402   1.499       .  S
O45          C60   1.255       .  A
O45         Al53   1.876       .  S
C46          O56   1.254       .  A
C46          O47   1.276       .  A
C46         C433   1.488       .  S
O47         Al49   1.975       .  S
O48          C50   1.256       .  A
O48         Al49   1.875       .  S
Al49         O57   1.921       .  S
Al49         O59   1.994       .  S
Al49         O58   1.783       .  S
C50          O63   1.268   1_565  A
C50         C304   1.484   1_565  S
O51          C61   1.258   1_545  A
O51         Al53   1.894   1_545  S
O52          C65   1.260       .  A
O52         Al62   1.886       .  S
Al53         O66   1.946       .  S
Al53         O63   1.957   1_565  S
Al53         O58   1.782       .  S
O54          C61   1.256       .  A
O54         Al62   1.873       .  S
O55          C64   1.258       .  A
O55         Al62   1.886       .  S
O56         Al62   1.855       .  S
O57          C64   1.267       .  A
O58         Al62   1.780       .  S
O59          C60   1.280       .  A
C60         C335   1.512       .  S
C61         C346   1.443   1_565  S
C64         C293   1.479       .  S
C65          O66   1.272       .  A
C65         C318   1.477       .  S
O67          C82   1.259       .  A
O67         Al75   1.882       .  S
C68          O78   1.271       .  A
C68          O69   1.269       .  A
C68         C363   1.507       .  S
O69         Al71   1.936       .  S
O70          C72   1.245       .  A
O70         Al71   1.838       .  S
Al71         O79   1.890       .  S
Al71         O81   1.942       .  S
Al71         O80   1.781       .  S
C72          O85   1.255       .  A
C72         C248   1.431       .  S
O73          C83   1.266       .  A
O73         Al75   1.933       .  S
O74          C87   1.284       .  A
O74         Al84   1.956       .  S
Al75         O88   1.886       .  S
Al75         O85   1.897       .  S
Al75         O80   1.777       .  S
O76          C83   1.256       .  A
O76         Al84   1.885       .  S
O77          C86   1.263       .  A
O77         Al84   1.928       .  S
O78         Al84   1.933       .  S
O79          C86   1.257       .  A
O80         Al84   1.771       .  S
O81          C82   1.268       .  A
C82         C265   1.486       .  S
C83         C279   1.478       .  S
C86         C290   1.493       .  S
C87          O88   1.261       .  A
C87         C237   1.490       .  S
O89         C104   1.251       .  A
O89         Al97   1.859       .  S
C90         O100   1.256       .  A
C90          O91   1.279       .  A
C90         C206   1.496       .  S
O91         Al93   1.981       .  S
O92          C94   1.255       .  A
O92         Al93   1.877       .  S
Al93        O101   1.932       .  S
Al93        O103   2.005       .  S
Al93        O102   1.783       .  S
C94         O107   1.267       .  A
C94         C388   1.484       .  S
O95         C105   1.257       .  A
O95         Al97   1.894       .  S
O96         C109   1.263       .  A
O96        Al106   1.899       .  S
Al97        O110   1.943       .  S
Al97        O107   1.954       .  S
Al97        O102   1.778       .  S
O98         C105   1.253       .  A
O98        Al106   1.852       .  S
O99         C108   1.252       .  A
O99        Al106   1.861       .  S
O100       Al106   1.858       .  S
O101        C108   1.267       .  A
O102       Al106   1.778       .  S
O103        C104   1.283       .  A
C104        C234   1.508       .  S
C105        C251   1.433       .  S
C108        C220   1.476       .  S
C109        O110   1.272       .  A
C109        C374   1.482       .  S
O111        C126   1.262       .  A
O111       Al119   1.881       .  S
C112        O122   1.269       .  A
C112        O113   1.267       .  A
C112        C192   1.487       .  S
O113       Al115   1.942       .  S
O114        C116   1.247       .  A
O114       Al115   1.857       .  S
Al115       O123   1.880       .  S
Al115       O125   1.946       .  S
Al115       O124   1.779       .  S
C116        O129   1.261       .  A
C116        C349   1.457       .  S
O117        C127   1.269       .  A
O117       Al119   1.934       .  S
O118        C131   1.282       .  A
O118       Al128   1.950       .  S
Al119       O132   1.900       .  S
Al119       O129   1.916       .  S
Al119       O124   1.773       .  S
O120        C127   1.260       .  A
O120       Al128   1.897       .  S
O121        C130   1.266       .  A
O121       Al128   1.941       .  S
O122       Al128   1.920       .  S
O123        C130   1.256       .  A
O124       Al128   1.772       .  S
O125        C126   1.268       .  A
C126        C503   1.489       .  S
C127        C489   1.484   1_545  S
C130        C223   1.491       .  S
C131        O132   1.265       .  A
C131        C332   1.489       .  S
O133        C148   1.264       .  A
O133       Al653   1.897       .  S
C134        O144   1.268       .  A
C134        O135   1.265       .  A
C134        C195   1.491       .  S
O135       Al649   1.935       .  S
O136        C138   1.249       .  A
O136       Al649   1.843       .  S
Al137       O145   1.879       .  S
Al137       O147   1.927       .  S
Al137       O647   1.932       .  S
Al137       O648   1.849       .  S
Al137       O658   1.785       .  S
C138        O151   1.260       .  A
C138        C475   1.469   1_554  S
O139        C149   1.268   1_565  A
O139       Al141   1.941   1_565  S
O140        C153   1.286       .  A
O140       Al150   1.973       .  S
Al141       O154   1.890       .  S
Al141       O151   1.918       .  S
Al141       O645   1.895   1_554  S
Al141       O146   1.783       .  S
O142        C149   1.258       .  A
O142       Al150   1.873       .  S
O143        C152   1.268       .  A
O143       Al150   1.953       .  S
O144       Al150   1.933       .  S
O145        C664   1.254       .  A
O146       Al150   1.778       .  S
O146       Al649   1.781       .  S
O147        C148   1.264       .  A
C148        C307   1.493       .  S
C149        C321   1.487   1_545  S
C152        O657   1.254   1_554  A
C152        C690   1.496       .  S
C153        O154   1.263       .  A
C153        C461   1.505       .  S
O155        C682   1.258   1_554  A
O155       Al675   1.876   1_554  S
C156        O166   1.254       .  A
C156        O157   1.276       .  A
C156        C209   1.488       .  S
O157       Al159   1.973       .  S
O158        C160   1.256       .  A
O158       Al159   1.867       .  S
Al159       O167   1.936       .  S
Al159       O169   1.990       .  S
Al159       O168   1.774       .  S
C160        O173   1.262       .  A
C160        C262   1.486       .  S
O161        C171   1.256       .  A
O161       Al163   1.894       .  S
O162        C175   1.259       .  A
O162       Al684   1.881   1_554  S
Al163       O173   1.940       .  S
Al163       O667   1.876       .  S
Al163       O688   1.942       .  S
Al163       O168   1.789       .  S
O164        C171   1.255       .  A
O164       Al172   1.860       .  S
O165        C686   1.252       .  A
O165       Al684   1.867       .  S
O166       Al172   1.856       .  S
O167        C174   1.268       .  A
O168       Al172   1.781       .  S
O169        C170   1.281       .  A
C170        O667   1.259       .  A
C170        C405   1.511       .  S
C171        C419   1.441       .  S
Al172       O674   1.882       .  S
Al172       O677   1.869       .  S
C174        O677   1.252       .  A
C174        C181   1.486       .  S
C175        O176   1.270       .  A
C175        C276   1.465       .  S
O176       Al675   1.937   1_554  S
C177        C182   1.403       .  A
C177        C690   1.403       .  A
C177        H184   1.084       .  S
C178        C664   1.496       .  S
C178        C179   1.423       .  A
C178        C689   1.404       .  A
C179        C180   1.405       .  A
C179        N186   1.428       .  S
C180        C181   1.399       .  A
C180        H185   1.084       .  S
C181        C694   1.417       .  A
C182        C693   1.417       .  A
C182        N183   1.431       .  S
N183        O187   1.262       .  A
N183        O188   1.262       .  A
N186        O190   1.262       .  A
N186        O189   1.261       .  A
C191        C192   1.399       .  A
C191        C196   1.404       .  A
C191        H198   1.085       .  S
C192        C193   1.412       .  A
C193        C194   1.413       .  A
C193        N200   1.428       .  S
C194        C195   1.407       .  A
C194        H199   1.083       .  S
C195        C196   1.419       .  A
C196        N197   1.436       .  S
N197        O201   1.259       .  A
N197        O202   1.263       .  A
N200        O204   1.261       .  A
N200        O203   1.262       .  A
C205        C206   1.401       .  A
C205       C1234   1.405       .  A
C205        H212   1.084       .  S
C206       C1231   1.425       .  A
C207        C208   1.405       .  A
C207       C1230   1.425   1_455  A
C207        N214   1.433       .  S
C208        C209   1.398       .  A
C208        H213   1.084       .  S
C209        C210   1.419       .  A
C210       C1229   1.404   1_455  A
C210       N1235   1.431   1_455  S
N211       C1234   1.432       .  S
N211        O215   1.262       .  A
N211       O1240   1.262       .  A
N214        O218   1.262   1_455  A
N214        O217   1.262       .  A
O216       N1235   1.262   1_455  A
C219        C220   1.404       .  A
C219        C224   1.398       .  A
C219        H226   1.085       .  S
C220        C221   1.407       .  A
C221        C222   1.405       .  A
C221        N228   1.429       .  S
C222        C223   1.412       .  A
C222        H227   1.084       .  S
C223        C224   1.415       .  A
C224        N225   1.429       .  S
N225        O229   1.262       .  A
N225        O230   1.262       .  A
N228        O232   1.262       .  A
N228        O231   1.262       .  A
C233        C234   1.401       .  A
C233        C238   1.410       .  A
C233        H240   1.083       .  S
C234        C235   1.433       .  A
C235        C236   1.402       .  A
C235        N242   1.427       .  S
C236        C237   1.388       .  A
C236        H241   1.084       .  S
C237        C238   1.422       .  A
C238        N239   1.429       .  S
N239        O243   1.262       .  A
N239        O244   1.262       .  A
N242        O246   1.262       .  A
N242        O245   1.262       .  A
C247        C248   1.402       .  A
C247       C1276   1.390   1_455  A
C247        H254   1.084       .  S
C248        C249   1.397   1_455  A
C249       C1274   1.389       .  A
C249        N256   1.436       .  S
C250        C251   1.406       .  A
C250       C1273   1.388       .  A
C250        H255   1.086       .  S
C251        C252   1.401       .  A
C252       C1271   1.391       .  A
C252        N253   1.432       .  S
N253       O1281   1.262       .  A
N253        O258   1.262       .  A
N256        O260   1.261       .  A
N256        O259   1.263   1_655  A
O257       N1277   1.262       .  A
C261        C262   1.401       .  A
C261        C266   1.390       .  A
C261        H268   1.084       .  S
C262        C263   1.413       .  A
C263        C264   1.411       .  A
C263        N270   1.428       .  S
C264        C265   1.409       .  A
C264        H269   1.083       .  S
C265        C266   1.416       .  A
C266        N267   1.432       .  S
N267        O271   1.262       .  A
N267        O272   1.262       .  A
N270        O274   1.262       .  A
N270        O273   1.262       .  A
C275        C276   1.391       .  A
C275        C280   1.393       .  A
C275        H282   1.084       .  S
C276        C277   1.414       .  A
C277        C278   1.407       .  A
C277        N284   1.431       .  S
C278        C279   1.401       .  A
C278        H283   1.084       .  S
C279        C280   1.417       .  A
C280        N281   1.429       .  S
N281        O285   1.261       .  A
N281        O286   1.262       .  A
N284        O288   1.262       .  A
N284        O287   1.262       .  A
C289        C290   1.410       .  A
C289        C294   1.405       .  A
C289        H296   1.083       .  S
C290        C291   1.417       .  A
C291        C292   1.400       .  A
C291        N298   1.430       .  S
C292        C293   1.403       .  A
C292        H297   1.084       .  S
C293        C294   1.409       .  A
C294        N295   1.430       .  S
N295        O299   1.262       .  A
N295        O300   1.262       .  A
N298        O302   1.262       .  A
N298        O301   1.262       .  A
C303        C304   1.402       .  A
C303        C308   1.410       .  A
C303        H310   1.084       .  S
C304        C305   1.413   1_545  A
C305        C306   1.396   1_565  A
C305        N312   1.430       .  S
C306        C307   1.404       .  A
C306        H311   1.084   1_545  S
C307        C308   1.419       .  A
C308        N309   1.428       .  S
N309        O313   1.262       .  A
N309        O314   1.261       .  A
N312        O316   1.261       .  A
N312        O315   1.262       .  A
C317        C318   1.411       .  A
C317        C322   1.416       .  A
C317        H324   1.084       .  S
C318        C319   1.401       .  A
C319        C320   1.392       .  A
C319        N326   1.431       .  S
C320        C321   1.406       .  A
C320        H325   1.085   1_565  S
C321        C322   1.414       .  A
C322        N323   1.435       .  S
N323        O327   1.263       .  A
N323        O328   1.262       .  A
N326        O330   1.262       .  A
N326        O329   1.262   1_565  A
C331        C332   1.391       .  A
C331       C1360   1.405       .  A
C331        H338   1.084       .  S
C332        C333   1.418   1_545  A
C333       C1358   1.411       .  A
C333        N340   1.432       .  S
C334        C335   1.406       .  A
C334       C1357   1.412   1_465  A
C334        H339   1.082       .  S
C335        C336   1.430   1_565  A
C336       C1355   1.407       .  A
C336        N337   1.427       .  S
N337        O341   1.262       .  A
N337        O342   1.262       .  A
N340        O344   1.262   1_565  A
N340        O343   1.262       .  A
C345        C346   1.400       .  A
C345        C350   1.394       .  A
C345        H352   1.085       .  S
C346        C347   1.400       .  A
C347        C348   1.393       .  A
C347        N354   1.431   1_545  S
C348        C349   1.405       .  A
C348        H353   1.084   1_545  S
C349        C350   1.409       .  A
C350        N351   1.430       .  S
N351        O355   1.262       .  A
N351        O356   1.262       .  A
N354        O358   1.262   1_565  A
N354        O357   1.261       .  A
C359        C364   1.407   1_655  A
C359       C1384   1.410       .  A
C359        H366   1.083       .  S
C360        C361   1.410       .  A
C360       C1383   1.411       .  A
C361       C1386   1.413       .  A
C361        N368   1.430       .  S
C362        C363   1.416       .  A
C362       C1385   1.414   1_455  A
C362        H367   1.083       .  S
C363        C364   1.413       .  A
C364        N365   1.428       .  S
N365        O369   1.262       .  A
N365        O370   1.262       .  A
N368        O372   1.262       .  A
N368        O371   1.261       .  A
C373        C374   1.412       .  A
C373        C378   1.414       .  A
C373        H380   1.084       .  S
C374        C375   1.402       .  A
C375        C376   1.389       .  A
C375        N382   1.427       .  S
C376        C377   1.404       .  A
C376        H381   1.084       .  S
C377        C378   1.411       .  A
C378        N379   1.429       .  S
N379        O383   1.262       .  A
N379        O384   1.262       .  A
N382        O386   1.262       .  A
N382        O385   1.262       .  A
C387        C388   1.400       .  A
C387        C392   1.409       .  A
C387        H394   1.084       .  S
C388        C389   1.412       .  A
C389        C390   1.399       .  A
C389        N396   1.429       .  S
C390        C391   1.404       .  A
C390        H395   1.084       .  S
C391        C392   1.421       .  A
C392        N393   1.428       .  S
N393        O397   1.262       .  A
N393        O398   1.261       .  A
N396        O400   1.261       .  A
N396        O399   1.262       .  A
C401        C402   1.402       .  A
C401        C406   1.414       .  A
C401        H408   1.084       .  S
C402        C915   1.419   1_554  A
C403        C404   1.410       .  A
C403        C914   1.419       .  A
C403        N410   1.431       .  S
C404        C405   1.405       .  A
C404        H409   1.084       .  S
C405        C918   1.427       .  A
C406        C917   1.427   1_554  A
C406        N407   1.431       .  S
N407        O411   1.262       .  A
N407        O412   1.262       .  A
N410        O414   1.262       .  A
N410        O413   1.262       .  A
C415        C420   1.387   1_554  A
C415       C1440   1.408   1_455  A
C415       H1446   1.084       .  S
C416       C1439   1.408       .  A
C416        C929   1.415   1_554  A
C417        C928   1.414       .  A
C417       C1442   1.394       .  A
C417        N424   1.434       .  S
C418        C419   1.400   1_655  A
C418       C1441   1.393       .  A
C418        H423   1.085       .  S
C419        C932   1.397       .  A
C420        C931   1.398       .  A
C420        N421   1.430   1_556  S
N421        O425   1.262   1_554  A
N421        O426   1.262       .  A
H422       C1439   1.084       .  S
N424        O428   1.262       .  A
N424        O427   1.262       .  A
C429        C430   1.400       .  A
C429        C434   1.409       .  A
C429        H436   1.083       .  S
C430        C431   1.422       .  A
C431        C432   1.403       .  A
C431        N438   1.434       .  S
C432        C433   1.398       .  A
C432        H437   1.084       .  S
C433        C434   1.424       .  A
C434        N435   1.440       .  S
N435        O439   1.263       .  A
N435        O440   1.263       .  A
N438        O442   1.263       .  A
N438        O441   1.262       .  A
C443        C444   1.400       .  A
C443        C448   1.406       .  A
C443        H450   1.084       .  S
C444        C957   1.416       .  A
C445        C446   1.402       .  A
C445        C956   1.413       .  A
C445        N452   1.432       .  S
C446        C959   1.405   1_554  A
C446        H451   1.083       .  S
C447        C554   1.497       .  S
C447        C448   1.423       .  A
C447        C958   1.403       .  A
C448        N449   1.429       .  S
N449        O453   1.262       .  A
N449        O454   1.262       .  A
N452        O456   1.262       .  A
N452        O455   1.262       .  A
C457        C970   1.420   1_544  A
C457       C1486   1.414       .  A
C457        H464   1.083       .  S
C458        C969   1.420   1_565  A
C458       C1483   1.416       .  A
C459        C460   1.413       .  A
C459       C1482   1.415   1_455  A
C459        N466   1.434   1_455  S
C460        C973   1.415   1_565  A
C460        H465   1.084       .  S
C461        C462   1.407       .  A
C461        C972   1.414   1_544  A
C462       C1481   1.414   1_455  A
C462        N463   1.429       .  S
N463       O1491   1.262       .  A
N463        O468   1.262       .  A
N466        O470   1.262       .  A
N466       O1493   1.262   1_655  A
O467       N1487   1.262       .  A
O469       N1490   1.262       .  A
C471        C472   1.397   1_565  A
C471        C476   1.394       .  A
C471        H478   1.085       .  S
C472        C985   1.403       .  A
C473        C474   1.392   1_556  A
C473        C984   1.401       .  A
C473        N480   1.437   1_556  S
C474        C475   1.409   1_554  A
C474        H479   1.084       .  S
C475        C988   1.416   1_545  A
C476        C987   1.416   1_565  A
C476        N477   1.434       .  S
N477        O481   1.262       .  A
N477        O482   1.262       .  A
N480        O484   1.262       .  A
N480        O995   1.262   1_554  A
O483        N992   1.262       .  A
C485        C486   1.393       .  A
C485        C490   1.396   1_565  A
C485        H492   1.084       .  S
C486        C487   1.413       .  A
C487        C488   1.406       .  A
C487        N494   1.430       .  S
C488        C489   1.403       .  A
C488        H493   1.084       .  S
C489        C490   1.419   1_565  A
C490        N491   1.429       .  S
N491        O495   1.261   1_545  A
N491        O496   1.262       .  A
N494        O498   1.262       .  A
N494        O497   1.262       .  A
C499        C500   1.408   1_545  A
C499        C504   1.410       .  A
C499        H506   1.084       .  S
C500        C501   1.415       .  A
C501        C502   1.394       .  A
C501        N508   1.432       .  S
C502        C503   1.404   1_565  A
C502        H507   1.084       .  S
C503        C504   1.414       .  A
C504        N505   1.428       .  S
N505        O509   1.262       .  A
N505        O510   1.262       .  A
N508        O512   1.262       .  A
N508        O511   1.262       .  A
C514        O524   1.255       .  A
C514        O515   1.278       .  A
C514        C942   1.493       .  S
O515       Al517   1.979       .  S
O516        C518   1.253       .  A
O516       Al517   1.875       .  S
Al517       O525   1.935       .  S
Al517       O527   2.003       .  S
Al517       O526   1.780       .  S
C518        O531   1.263       .  A
C518       C1012   1.486       .  S
O519        C529   1.257       .  A
O519       Al521   1.895       .  S
O520        C533   1.261       .  A
Al521       O531   1.936       .  S
Al521       O526   1.785       .  S
O522        C529   1.255       .  A
O522       Al530   1.864       .  S
O524       Al530   1.854       .  S
O525        C532   1.268       .  A
O526       Al530   1.778       .  S
O527        C528   1.283       .  A
C528        C970   1.515       .  S
C529        C984   1.441   1_565  S
C532        C956   1.480   1_556  S
C533        O534   1.270       .  A
C533        C998   1.472       .  S
O535        C550   1.266       .  A
C536        O546   1.269       .  A
C536        O537   1.261       .  A
C536        C872   1.501       .  S
O538        C540   1.247       .  A
Al539       O547   1.873   1_554  S
Al539       O549   1.922   1_554  S
C540        O553   1.260       .  A
C540        C928   1.465       .  S
O541        C551   1.268       .  A
O541       Al543   1.932       .  S
O542        C555   1.284       .  A
O542       Al552   1.970       .  S
Al543       O556   1.891       .  S
Al543       O553   1.920       .  S
Al543       O548   1.786       .  S
O544        C551   1.261       .  A
O544       Al552   1.878       .  S
O545        C554   1.273       .  A
O545       Al552   1.961       .  S
O546       Al552   1.949       .  S
O548       Al552   1.774       .  S
O549        C550   1.262       .  A
C550        C903   1.496       .  S
C551        C889   1.484       .  S
C555        O556   1.262       .  A
C555        C914   1.499       .  S
O557        C572   1.257       .  A
O557       Al565   1.880       .  S
C558        O568   1.254       .  A
C558        O559   1.275       .  A
C558        C945   1.490       .  S
O559       Al561   1.975       .  S
O560        C562   1.256       .  A
O560       Al561   1.877       .  S
Al561       O569   1.924       .  S
Al561       O571   1.994       .  S
Al561       O570   1.784       .  S
C562        O575   1.266   1_565  A
C562        C816   1.487   1_565  S
O563        C573   1.259   1_545  A
O563       Al565   1.899   1_545  S
O564        C577   1.261       .  A
O564       Al574   1.890       .  S
Al565       O578   1.944       .  S
Al565       O575   1.952   1_565  S
Al565       O570   1.784       .  S
O566        C573   1.255       .  A
O566       Al574   1.870       .  S
O567        C576   1.256       .  A
O567       Al574   1.882       .  S
O568       Al574   1.854       .  S
O569        C576   1.267       .  A
O570       Al574   1.783       .  S
O571        C572   1.280       .  A
C572        C847   1.514       .  S
C573        C858   1.443   1_565  S
C576        C805   1.481       .  S
C577        O578   1.271       .  A
C577        C830   1.480       .  S
O579        C594   1.260       .  A
O579       Al587   1.885       .  S
C580        O590   1.271       .  A
C580        O581   1.269       .  A
C580        C875   1.506       .  S
O581       Al583   1.934       .  S
O582        C584   1.246       .  A
O582       Al583   1.841       .  S
Al583       O591   1.891       .  S
Al583       O593   1.941       .  S
Al583       O592   1.781       .  S
C584        O597   1.255       .  A
C584        C760   1.432       .  S
O585        C595   1.266       .  A
O585       Al587   1.934       .  S
O586        C599   1.284       .  A
O586       Al596   1.955       .  S
Al587       O600   1.885       .  S
Al587       O597   1.894       .  S
Al587       O592   1.777       .  S
O588        C595   1.256       .  A
O588       Al596   1.888       .  S
O589        C598   1.263       .  A
O589       Al596   1.931       .  S
O590       Al596   1.931       .  S
O591        C598   1.258       .  A
O592       Al596   1.774       .  S
O593        C594   1.268       .  A
C594        C777   1.488       .  S
C595        C791   1.478       .  S
C598        C802   1.495       .  S
C599        O600   1.262       .  A
C599        C749   1.489       .  S
O601        C616   1.252       .  A
O601       Al609   1.861       .  S
C602        O612   1.256       .  A
C602        O603   1.278       .  A
C602        C718   1.494       .  S
O603       Al605   1.979       .  S
O604        C606   1.255       .  A
O604       Al605   1.881       .  S
Al605       O613   1.930       .  S
Al605       O615   1.998       .  S
Al605       O614   1.784       .  S
C606        O619   1.266       .  A
C606        C900   1.484       .  S
O607        C617   1.258       .  A
O607       Al609   1.897       .  S
O608        C621   1.263       .  A
O608       Al618   1.898       .  S
Al609       O622   1.941       .  S
Al609       O619   1.951       .  S
Al609       O614   1.778       .  S
O610        C617   1.253       .  A
O610       Al618   1.855       .  S
O611        C620   1.252       .  A
O611       Al618   1.860       .  S
O612       Al618   1.857       .  S
O613        C620   1.266       .  A
O614       Al618   1.779       .  S
O615        C616   1.282       .  A
C616        C746   1.507       .  S
C617        C763   1.436       .  S
C620        C732   1.474       .  S
C621        O622   1.272       .  A
C621        C886   1.480       .  S
O623        C638   1.261       .  A
O623       Al631   1.882       .  S
C624        O634   1.269       .  A
C624        O625   1.265       .  A
C624        C704   1.486       .  S
O625       Al627   1.940       .  S
O626        C628   1.246       .  A
O626       Al627   1.853       .  S
Al627       O635   1.878       .  S
Al627       O637   1.942       .  S
Al627       O636   1.779       .  S
C628        O641   1.264       .  A
C628        C861   1.460       .  S
O629        C639   1.270       .  A
O629       Al631   1.941       .  S
O630        C643   1.282       .  A
O630       Al640   1.949       .  S
Al631       O644   1.905       .  S
Al631       O641   1.928       .  S
Al631       O636   1.775       .  S
O632        C639   1.259       .  A
O632       Al640   1.891       .  S
O633        C642   1.266       .  A
O633       Al640   1.939       .  S
O634       Al640   1.921       .  S
O635        C642   1.256       .  A
O636       Al640   1.770       .  S
O637        C638   1.267       .  A
C638       C1015   1.487       .  S
C639       C1001   1.489   1_545  S
C642        C735   1.490       .  S
C643        O644   1.266       .  A
C643        C844   1.491       .  S
O645        C660   1.263       .  A
C646        O656   1.268       .  A
C646        O647   1.264       .  A
C646        C707   1.491       .  S
O648        C650   1.249       .  A
Al649       O657   1.877   1_554  S
Al649       O659   1.930   1_554  S
C650        O663   1.259       .  A
C650        C987   1.468       .  S
O651        C661   1.269       .  A
O651       Al653   1.944       .  S
O652        C665   1.286       .  A
O652       Al662   1.973       .  S
Al653       O666   1.887       .  S
Al653       O663   1.912       .  S
Al653       O658   1.783       .  S
O654        C661   1.258       .  A
O654       Al662   1.872       .  S
O655        C664   1.268       .  A
O655       Al662   1.951       .  S
O656       Al662   1.933       .  S
O658       Al662   1.779       .  S
O659        C660   1.265       .  A
C660        C819   1.492       .  S
C661        C833   1.492   1_545  S
C665        O666   1.262       .  A
C665        C973   1.504       .  S
C668        O678   1.254       .  A
C668        O669   1.276       .  A
C668        C721   1.487       .  S
O669       Al671   1.972       .  S
O670        C672   1.257       .  A
O670       Al671   1.873       .  S
Al671       O679   1.938       .  S
Al671       O681   1.988       .  S
Al671       O680   1.776       .  S
C672        O685   1.262       .  A
C672        C774   1.488       .  S
O673        C683   1.257       .  A
O673       Al675   1.894       .  S
O674        C687   1.260       .  A
Al675       O685   1.938       .  S
Al675       O680   1.789       .  S
O676        C683   1.254       .  A
O676       Al684   1.858       .  S
O678       Al684   1.854       .  S
O679        C686   1.269       .  A
O680       Al684   1.782       .  S
O681        C682   1.281       .  A
C682        C917   1.511       .  S
C683        C931   1.440       .  S
C686        C693   1.485   1_556  S
C687        O688   1.271       .  A
C687        C788   1.467       .  S
C689        C694   1.403       .  A
C689        H696   1.084       .  S
C690        C691   1.423   1_554  A
C691        C692   1.404       .  A
C691        N698   1.428       .  S
C692        C693   1.398   1_556  A
C692        H697   1.084       .  S
C694        N695   1.431       .  S
N695        O699   1.262       .  A
N695        O700   1.262       .  A
N698        O702   1.262       .  A
N698        O701   1.261       .  A
C703        C704   1.398       .  A
C703        C708   1.402       .  A
C703        H710   1.085       .  S
C704        C705   1.412       .  A
C705        C706   1.414       .  A
C705        N712   1.428       .  S
C706        C707   1.407       .  A
C706        H711   1.083       .  S
C707        C708   1.418       .  A
C708        N709   1.433       .  S
N709        O713   1.259       .  A
N709        O714   1.263       .  A
N712        O716   1.262       .  A
N712        O715   1.262       .  A
C717        C718   1.401       .  A
C717       C1746   1.404       .  A
C717        H724   1.084       .  S
C718       C1743   1.425       .  A
C719       C1742   1.425   1_455  A
C719        C720   1.404       .  A
C719        N726   1.433       .  S
C720        C721   1.398       .  A
C720        H725   1.084       .  S
C721        C722   1.419       .  A
C722       C1741   1.405   1_455  A
C722       N1747   1.432   1_455  S
N723       C1746   1.432       .  S
N723        O727   1.262       .  A
N723       O1752   1.262       .  A
N726        O730   1.262   1_455  A
N726        O729   1.262       .  A
O728       N1747   1.262   1_455  A
C731        C732   1.404       .  A
C731        C736   1.397       .  A
C731        H738   1.085       .  S
C732        C733   1.407       .  A
C733        C734   1.405       .  A
C733        N740   1.428       .  S
C734        C735   1.412       .  A
C734        H739   1.084       .  S
C735        C736   1.415       .  A
C736        N737   1.429       .  S
N737        O741   1.262       .  A
N737        O742   1.262       .  A
N740        O744   1.262       .  A
N740        O743   1.262       .  A
C745        C746   1.401       .  A
C745        C750   1.409       .  A
C745        H752   1.083       .  S
C746        C747   1.432       .  A
C747        C748   1.403       .  A
C747        N754   1.426       .  S
C748        C749   1.388       .  A
C748        H753   1.084       .  S
C749        C750   1.422       .  A
C750        N751   1.430       .  S
N751        O755   1.262       .  A
N751        O756   1.262       .  A
N754        O758   1.262       .  A
N754        O757   1.262       .  A
C759        C760   1.403       .  A
C759       C1788   1.390   1_455  A
C759        H766   1.084       .  S
C760        C761   1.398   1_455  A
C761       C1786   1.390       .  A
C761        N768   1.436       .  S
C762       C1785   1.389       .  A
C762        C763   1.406       .  A
C762        H767   1.085       .  S
C763        C764   1.400       .  A
C764       C1783   1.390       .  A
C764        N765   1.430       .  S
N765       O1793   1.262       .  A
N765        O770   1.262       .  A
N768        O772   1.261       .  A
N768        O771   1.263   1_655  A
O769       N1789   1.262   1_455  A
C773        C774   1.401       .  A
C773        C778   1.391       .  A
C773        H780   1.084       .  S
C774        C775   1.414       .  A
C775        C776   1.411       .  A
C775        N782   1.428       .  S
C776        C777   1.409       .  A
C776        H781   1.083       .  S
C777        C778   1.416       .  A
C778        N779   1.431       .  S
N779        O783   1.262       .  A
N779        O784   1.262       .  A
N782        O786   1.262       .  A
N782        O785   1.262       .  A
C787        C788   1.392       .  A
C787        C792   1.395       .  A
C787        H794   1.084       .  S
C788        C789   1.414       .  A
C789        C790   1.407       .  A
C789        N796   1.431       .  S
C790        C791   1.401       .  A
C790        H795   1.084       .  S
C791        C792   1.416       .  A
C792        N793   1.429       .  S
N793        O797   1.262       .  A
N793        O798   1.262       .  A
N796        O800   1.262       .  A
N796        O799   1.262       .  A
C801        C802   1.410       .  A
C801        C806   1.406       .  A
C801        H808   1.083       .  S
C802        C803   1.417       .  A
C803        C804   1.401       .  A
C803        N810   1.429       .  S
C804        C805   1.404       .  A
C804        H809   1.084       .  S
C805        C806   1.409       .  A
C806        N807   1.429       .  S
N807        O811   1.262       .  A
N807        O812   1.262       .  A
N810        O814   1.262       .  A
N810        O813   1.262       .  A
C815        C816   1.404       .  A
C815        C820   1.410       .  A
C815        H822   1.084       .  S
C816        C817   1.414   1_545  A
C817        C818   1.396       .  A
C817        N824   1.430       .  S
C818        C819   1.404   1_565  A
C818        H823   1.084       .  S
C819        C820   1.417       .  A
C820        N821   1.428       .  S
N821        O825   1.262       .  A
N821        O826   1.262       .  A
N824        O828   1.261       .  A
N824        O827   1.262       .  A
C829        C830   1.411       .  A
C829        C834   1.417       .  A
C829        H836   1.084       .  S
C830        C831   1.401       .  A
C831        C832   1.392       .  A
C831        N838   1.430       .  S
C832        C833   1.408       .  A
C832        H837   1.084   1_565  S
C833        C834   1.415       .  A
C834        N835   1.434       .  S
N835        O839   1.262       .  A
N835        O840   1.262       .  A
N838        O842   1.262       .  A
N838        O841   1.262   1_565  A
C843        C844   1.392       .  A
C843       C1872   1.406       .  A
C843        H850   1.084       .  S
C844        C845   1.417   1_545  A
C845       C1870   1.412       .  A
C845        N852   1.432       .  S
C846       C1869   1.413   1_455  A
C846        C847   1.408       .  A
C846        H851   1.083       .  S
C847        C848   1.431   1_565  A
C848       C1867   1.407       .  A
C848        N849   1.428       .  S
N849        O853   1.262       .  A
N849        O854   1.262       .  A
N852        O856   1.262   1_565  A
N852        O855   1.262       .  A
C857        C858   1.399       .  A
C857        C862   1.393       .  A
C857        H864   1.085       .  S
C858        C859   1.403       .  A
C859        C860   1.394       .  A
C859        N866   1.431   1_545  S
C860        C861   1.405       .  A
C860        H865   1.084   1_545  S
C861        C862   1.411       .  A
C862        N863   1.431       .  S
N863        O867   1.262       .  A
N863        O868   1.262       .  A
N866        O870   1.262   1_565  A
N866        O869   1.261       .  A
C871       C1896   1.410       .  A
C871        C876   1.406   1_655  A
C871        H878   1.083       .  S
C872       C1895   1.410       .  A
C872        C873   1.410       .  A
C873       C1898   1.413       .  A
C873        N880   1.429       .  S
C874       C1897   1.413   1_455  A
C874        C875   1.415       .  A
C874        H879   1.083       .  S
C875        C876   1.413       .  A
C876        N877   1.429       .  S
N877        O881   1.262       .  A
N877        O882   1.262       .  A
N880        O884   1.262       .  A
N880        O883   1.261       .  A
C885        C886   1.411       .  A
C885        C890   1.414       .  A
C885        H892   1.084       .  S
C886        C887   1.402       .  A
C887        C888   1.389       .  A
C887        N894   1.427       .  S
C888        C889   1.403       .  A
C888        H893   1.084       .  S
C889        C890   1.412       .  A
C890        N891   1.431       .  S
N891        O895   1.262       .  A
N891        O896   1.262       .  A
N894        O898   1.262       .  A
N894        O897   1.262       .  A
C899        C900   1.400       .  A
C899        C904   1.408       .  A
C899        H906   1.084       .  S
C900        C901   1.413       .  A
C901        C902   1.400       .  A
C901        N908   1.430       .  S
C902        C903   1.404       .  A
C902        H907   1.084       .  S
C903        C904   1.421       .  A
C904        N905   1.428       .  S
N905        O909   1.262       .  A
N905        O910   1.261       .  A
N908        O912   1.262       .  A
N908        O911   1.262       .  A
C913        C914   1.403       .  A
C913        C918   1.415       .  A
C913        H920   1.084       .  S
C915        C916   1.409       .  A
C915        N922   1.431       .  S
C916        C917   1.405       .  A
C916        H921   1.084       .  S
C918        N919   1.431       .  S
N919        O923   1.262       .  A
N919        O924   1.262       .  A
N922        O926   1.262       .  A
N922        O925   1.262       .  A
C927       C1952   1.409   1_455  A
C927        C932   1.387       .  A
C927       H1958   1.083       .  S
C928       C1951   1.409       .  A
C929       C1954   1.393       .  A
C929        N936   1.434       .  S
C930       C1953   1.393       .  A
C930        C931   1.399   1_655  A
C930        H935   1.085       .  S
C932        N933   1.430       .  S
N933        O937   1.262       .  A
N933        O938   1.262       .  A
H934       C1951   1.083       .  S
N936        O940   1.262       .  A
N936        O939   1.262       .  A
C941        C942   1.399       .  A
C941        C946   1.409       .  A
C941        H948   1.083       .  S
C942        C943   1.422       .  A
C943        C944   1.404       .  A
C943        N950   1.434       .  S
C944        C945   1.398       .  A
C944        H949   1.084       .  S
C945        C946   1.424       .  A
C946        N947   1.439       .  S
N947        O951   1.263       .  A
N947        O952   1.263       .  A
N950        O954   1.262       .  A
N950        O953   1.262       .  A
C955        C956   1.400   1_556  A
C955        C960   1.407       .  A
C955        H962   1.084       .  S
C957        C958   1.402       .  A
C957        N964   1.433       .  S
C958        H963   1.083       .  S
C959        C960   1.422       .  A
C960        N961   1.431       .  S
N961        O965   1.262       .  A
N961        O966   1.262       .  A
N964        O968   1.262       .  A
N964        O967   1.262       .  A
C969       C1998   1.413       .  A
C969        H976   1.083       .  S
C970       C1995   1.415       .  A
C971       C1994   1.416   1_455  A
C971        C972   1.412       .  A
C971        N978   1.434   1_455  S
C972        H977   1.084       .  S
C973        C974   1.407       .  A
C974       C1993   1.413   1_455  A
C974        N975   1.429       .  S
N975       O2003   1.262       .  A
N975        O980   1.262       .  A
N978        O982   1.262       .  A
N978       O2005   1.262   1_655  A
O979       N1999   1.262       .  A
O981       N2002   1.262       .  A
C983        C984   1.398   1_565  A
C983        C988   1.395       .  A
C983        H990   1.085       .  S
C985        C986   1.394       .  A
C985        N992   1.437       .  S
C986        C987   1.408       .  A
C986        H991   1.084       .  S
C988        N989   1.434       .  S
N989        O993   1.262       .  A
N989        O994   1.262       .  A
N992        O996   1.262       .  A
C997        C998   1.391       .  A
C997       C1002   1.394   1_565  A
C997       H1004   1.085       .  S
C998        C999   1.415       .  A
C999       C1000   1.408       .  A
C999       N1006   1.429       .  S
C1000      C1001   1.404       .  A
C1000      H1005   1.083       .  S
C1001      C1002   1.420   1_565  A
C1002      N1003   1.428       .  S
N1003      O1007   1.261       .  A
N1003      O1008   1.262       .  A
N1006      O1010   1.262       .  A
N1006      O1009   1.262       .  A
C1011      C1012   1.407   1_545  A
C1011      C1016   1.408       .  A
C1011      H1018   1.084       .  S
C1012      C1013   1.415       .  A
C1013      C1014   1.395       .  A
C1013      N1020   1.431       .  S
C1014      C1015   1.404   1_565  A
C1014      H1019   1.084       .  S
C1015      C1016   1.413       .  A
C1016      N1017   1.428       .  S
N1017      O1021   1.262       .  A
N1017      O1022   1.262       .  A
N1020      O1024   1.262       .  A
N1020      O1023   1.262       .  A
O1025      C1552   1.261   1_554  A
O1025     Al1545   1.877   1_554  S
C1026      O1036   1.255       .  A
C1026      O1027   1.277       .  A
C1026      C1454   1.491       .  S
O1027     Al1029   1.977       .  S
O1028      C1030   1.253       .  A
O1028     Al1029   1.874       .  S
Al1029     O1037   1.936       .  S
Al1029     O1039   1.995       .  S
Al1029     O1038   1.782       .  S
C1030      O1043   1.261       .  A
C1030      C1524   1.481       .  S
O1031      C1041   1.258       .  A
O1031     Al1033   1.900       .  S
O1032      C1045   1.262       .  A
O1032     Al1554   1.890   1_554  S
Al1033     O1537   1.873       .  S
Al1033     O1558   1.934       .  S
Al1033     O1043   1.927       .  S
Al1033     O1038   1.785       .  S
O1034      C1041   1.254       .  A
O1034     Al1042   1.860       .  S
O1035      C1556   1.248       .  A
O1035     Al1554   1.847       .  S
O1036     Al1042   1.854       .  S
O1037      C1044   1.267       .  A
O1038     Al1042   1.780       .  S
O1039      C1040   1.282       .  A
C1040      O1537   1.259       .  A
C1040      C1482   1.515       .  S
C1041      C1496   1.445   1_565  S
Al1042     O1544   1.885       .  S
Al1042     O1547   1.858       .  S
C1044      O1547   1.250       .  A
C1044      C1468   1.480       .  S
C1045      O1046   1.270       .  A
C1045      C1510   1.475       .  S
O1046     Al1545   1.938   1_554  S
O1047      C1062   1.266       .  A
O1047     Al1567   1.908       .  S
C1048      O1058   1.270       .  A
C1048      O1049   1.262       .  A
C1048      C1384   1.503       .  S
O1049     Al1563   1.920       .  S
O1050      C1052   1.249       .  A
O1050     Al1563   1.850       .  S
Al1051     O1561   1.920       .  S
Al1051     O1562   1.849       .  S
Al1051     O1059   1.871       .  S
Al1051     O1061   1.929       .  S
Al1051     O1572   1.772       .  S
C1052      O1065   1.260       .  A
C1052      C1440   1.464       .  S
O1053      C1063   1.268       .  A
O1053     Al1055   1.936       .  S
O1054      C1067   1.284       .  A
O1054     Al1064   1.971       .  S
Al1055     O1559   1.910   1_554  S
Al1055     O1068   1.888       .  S
Al1055     O1065   1.913       .  S
Al1055     O1060   1.786       .  S
O1056      C1063   1.260       .  A
O1056     Al1064   1.874       .  S
O1057      C1066   1.271       .  A
O1057     Al1064   1.954       .  S
O1058     Al1064   1.951       .  S
O1059      C1578   1.255       .  A
O1060     Al1563   1.774       .  S
O1060     Al1064   1.776       .  S
O1061      C1062   1.264       .  A
C1062      C1415   1.495       .  S
C1063      C1401   1.485       .  S
C1066      O1571   1.255   1_554  A
C1066      C1983   1.495       .  S
C1067      O1068   1.261       .  A
C1067      C1426   1.499       .  S
O1069      C1084   1.255       .  A
O1069     Al1077   1.874       .  S
C1070      O1080   1.255       .  A
C1070      O1071   1.277       .  A
C1070      C1457   1.495       .  S
O1071     Al1073   1.976       .  S
O1072      C1074   1.255       .  A
O1072     Al1073   1.875       .  S
Al1073     O1081   1.917       .  S
Al1073     O1083   1.998       .  S
Al1073     O1082   1.780       .  S
C1074      O1087   1.267   1_565  A
C1074      C1328   1.484   1_565  S
O1075      C1085   1.259       .  A
O1075     Al1077   1.896       .  S
O1076      C1089   1.263       .  A
O1076     Al1086   1.897       .  S
Al1077     O1090   1.939       .  S
Al1077     O1087   1.957   1_565  S
Al1077     O1082   1.778       .  S
O1078      C1085   1.255       .  A
O1078     Al1086   1.870       .  S
O1079      C1088   1.257       .  A
O1079     Al1086   1.883       .  S
O1080     Al1086   1.861       .  S
O1081      C1088   1.265       .  A
O1082     Al1086   1.780       .  S
O1083      C1084   1.281       .  A
C1084      C1359   1.511       .  S
C1085      C1370   1.439   1_565  S
C1088      C1317   1.472       .  S
C1089      O1090   1.272       .  A
C1089      C1342   1.481       .  S
O1091      C1106   1.260       .  A
O1091     Al1099   1.883       .  S
C1092      O1102   1.272       .  A
C1092      O1093   1.268       .  A
C1092      C1387   1.505       .  S
O1093     Al1095   1.932       .  S
O1094      C1096   1.245       .  A
O1094     Al1095   1.839       .  S
Al1095     O1103   1.886       .  S
Al1095     O1105   1.938       .  S
Al1095     O1104   1.780       .  S
C1096      O1109   1.255       .  A
C1096      C1272   1.431       .  S
O1097      C1107   1.267       .  A
O1097     Al1099   1.935       .  S
O1098      C1111   1.283       .  A
O1098     Al1108   1.955       .  S
Al1099     O1112   1.885       .  S
Al1099     O1109   1.899       .  S
Al1099     O1104   1.778       .  S
O1100      C1107   1.257       .  A
O1100     Al1108   1.886       .  S
O1101      C1110   1.263       .  A
O1101     Al1108   1.927       .  S
O1102     Al1108   1.935       .  S
O1103      C1110   1.257       .  A
O1104     Al1108   1.770       .  S
O1105      C1106   1.267       .  A
C1106      C1289   1.484       .  S
C1107      C1303   1.478       .  S
C1110      C1314   1.489       .  S
C1111      O1112   1.261       .  A
C1111      C1261   1.488       .  S
O1113      C1128   1.251       .  A
O1113     Al1121   1.858       .  S
C1114      O1124   1.257       .  A
C1114      O1115   1.279       .  A
C1114      C1230   1.495       .  S
O1115     Al1117   1.979       .  S
O1116      C1118   1.254       .  A
O1116     Al1117   1.874       .  S
Al1117     O1125   1.932       .  S
Al1117     O1127   2.003       .  S
Al1117     O1126   1.783       .  S
C1118      O1131   1.267       .  A
C1118      C1412   1.484       .  S
O1119      C1129   1.257       .  A
O1119     Al1121   1.896       .  S
O1120      C1133   1.264       .  A
O1120     Al1130   1.898       .  S
Al1121     O1134   1.944       .  S
Al1121     O1131   1.956       .  S
Al1121     O1126   1.777       .  S
O1122      C1129   1.253       .  A
O1122     Al1130   1.852       .  S
O1123      C1132   1.252       .  A
O1123     Al1130   1.859       .  S
O1124     Al1130   1.860       .  S
O1125      C1132   1.267       .  A
O1126     Al1130   1.777       .  S
O1127      C1128   1.283       .  A
C1128      C1258   1.508       .  S
C1129      C1275   1.434       .  S
C1132      C1244   1.477       .  S
C1133      O1134   1.273       .  A
C1133      C1398   1.481       .  S
O1135      C1150   1.261       .  A
O1135     Al1143   1.885       .  S
C1136      O1146   1.274       .  A
C1136      O1137   1.263       .  A
C1136      C1216   1.500       .  S
O1137     Al1139   1.922       .  S
O1138      C1140   1.247       .  A
O1138     Al1139   1.849       .  S
Al1139     O1147   1.887       .  S
Al1139     O1149   1.917       .  S
Al1139     O1148   1.785       .  S
C1140      O1153   1.259       .  A
C1140      C1373   1.442       .  S
O1141      C1151   1.267       .  A
O1141     Al1143   1.941       .  S
O1142      C1155   1.282       .  A
O1142     Al1152   1.956       .  S
Al1143     O1156   1.894       .  S
Al1143     O1153   1.906       .  S
Al1143     O1148   1.780       .  S
O1144      C1151   1.257       .  A
O1144     Al1152   1.889       .  S
O1145      C1154   1.262       .  A
O1145     Al1152   1.924       .  S
O1146     Al1152   1.930       .  S
O1147      C1154   1.256       .  A
O1148     Al1152   1.773       .  S
O1149      C1150   1.263       .  A
C1150      C1527   1.484       .  S
C1151      C1513   1.493       .  S
C1154      C1247   1.491       .  S
C1155      O1156   1.264       .  A
C1155      C1356   1.491       .  S
O1157      C1172   1.264       .  A
O1157     Al1677   1.898       .  S
C1158      O1168   1.271       .  A
C1158      O1159   1.262       .  A
C1158      C1219   1.504       .  S
O1159     Al1673   1.919       .  S
O1160      C1162   1.247       .  A
O1160     Al1673   1.849       .  S
Al1161     O1671   1.931       .  S
Al1161     O1672   1.847       .  S
Al1161     O1169   1.880       .  S
Al1161     O1171   1.927       .  S
Al1161     O1682   1.784       .  S
C1162      O1175   1.260       .  A
C1162      C1499   1.474   1_554  S
O1163      C1173   1.272   1_565  A
O1163     Al1165   1.954   1_565  S
O1164      C1177   1.285       .  A
O1164     Al1174   1.976       .  S
Al1165     O1669   1.904   1_554  S
Al1165     O1178   1.884       .  S
Al1165     O1175   1.918       .  S
Al1165     O1170   1.794       .  S
O1166      C1173   1.258       .  A
O1166     Al1174   1.864       .  S
O1167      C1176   1.267       .  A
O1167     Al1174   1.939       .  S
O1168     Al1174   1.950       .  S
O1169      C1688   1.254       .  A
O1170     Al1673   1.777       .  S
O1170     Al1174   1.776       .  S
O1171      C1172   1.264       .  A
C1172      C1331   1.492       .  S
C1173      C1345   1.492   1_545  S
C1176      O1681   1.255   1_554  A
C1176      C1714   1.493       .  S
C1177      O1178   1.260       .  A
C1177      C1485   1.502       .  S
O1179      C1706   1.258   1_554  A
O1179     Al1699   1.875   1_554  S
C1180      O1190   1.255       .  A
C1180      O1181   1.276       .  A
C1180      C1233   1.489       .  S
O1181     Al1183   1.974       .  S
O1182      C1184   1.255       .  A
O1182     Al1183   1.863       .  S
Al1183     O1191   1.932       .  S
Al1183     O1193   1.989       .  S
Al1183     O1192   1.774       .  S
C1184      O1197   1.263       .  A
C1184      C1286   1.484       .  S
O1185      C1195   1.256       .  A
O1185     Al1187   1.894       .  S
O1186      C1199   1.260       .  A
O1186     Al1708   1.882   1_554  S
Al1187     O1691   1.876       .  S
Al1187     O1712   1.941       .  S
Al1187     O1197   1.941       .  S
Al1187     O1192   1.788       .  S
O1188      C1195   1.255       .  A
O1188     Al1196   1.858       .  S
O1189      C1710   1.252       .  A
O1189     Al1708   1.865       .  S
O1190     Al1196   1.857       .  S
O1191      C1198   1.268       .  A
O1192     Al1196   1.780       .  S
O1193      C1194   1.281       .  A
C1194      O1691   1.259       .  A
C1194      C1429   1.510       .  S
C1195      C1443   1.439       .  S
Al1196     O1698   1.881       .  S
Al1196     O1701   1.867       .  S
C1198      O1701   1.252       .  A
C1198      C1205   1.483       .  S
C1199      O1200   1.270       .  A
C1199      C1300   1.467       .  S
O1200     Al1699   1.940   1_554  S
C1201      C1714   1.403       .  A
C1201      C1206   1.401       .  A
C1201      H1208   1.084       .  S
C1202      C1688   1.492       .  S
C1202      C1713   1.403       .  A
C1202      C1203   1.422       .  A
C1203      C1204   1.404       .  A
C1203      N1210   1.428       .  S
C1204      C1205   1.399       .  A
C1204      H1209   1.084       .  S
C1205      C1718   1.417       .  A
C1206      C1717   1.417       .  A
C1206      N1207   1.431       .  S
N1207      O1211   1.262       .  A
N1207      O1212   1.262       .  A
N1210      O1214   1.262       .  A
N1210      O1213   1.261       .  A
C1215      C1216   1.394       .  A
C1215      C1220   1.400       .  A
C1215      H1222   1.084       .  S
C1216      C1217   1.424       .  A
C1217      C1218   1.415       .  A
C1217      N1224   1.430       .  S
C1218      C1219   1.405       .  A
C1218      H1223   1.083       .  S
C1219      C1220   1.421       .  A
C1220      N1221   1.424       .  S
N1221      O1225   1.263       .  A
N1221      O1226   1.262       .  A
N1224      O1228   1.262       .  A
N1224      O1227   1.262       .  A
C1229      C1230   1.401       .  A
C1229      H1236   1.084       .  S
C1231      C1232   1.405       .  A
C1231      N1238   1.433       .  S
C1232      C1233   1.398       .  A
C1232      H1237   1.084       .  S
C1233      C1234   1.419       .  A
N1235      O1239   1.262       .  A
N1238      O1242   1.262       .  A
N1238      O1241   1.262       .  A
C1243      C1244   1.404       .  A
C1243      C1248   1.396       .  A
C1243      H1250   1.085       .  S
C1244      C1245   1.408       .  A
C1245      C1246   1.407       .  A
C1245      N1252   1.429       .  S
C1246      C1247   1.412       .  A
C1246      H1251   1.083       .  S
C1247      C1248   1.415       .  A
C1248      N1249   1.430       .  S
N1249      O1253   1.262       .  A
N1249      O1254   1.262       .  A
N1252      O1256   1.262       .  A
N1252      O1255   1.262       .  A
C1257      C1258   1.402       .  A
C1257      C1262   1.410       .  A
C1257      H1264   1.083       .  S
C1258      C1259   1.433       .  A
C1259      C1260   1.402       .  A
C1259      N1266   1.427       .  S
C1260      C1261   1.387       .  A
C1260      H1265   1.084       .  S
C1261      C1262   1.421       .  A
C1262      N1263   1.429       .  S
N1263      O1267   1.262       .  A
N1263      O1268   1.262       .  A
N1266      O1270   1.262       .  A
N1266      O1269   1.262       .  A
C1271      C1272   1.403       .  A
C1271      H1278   1.084       .  S
C1272      C1273   1.396       .  A
C1273      N1280   1.434       .  S
C1274      C1275   1.406       .  A
C1274      H1279   1.085       .  S
C1275      C1276   1.401       .  A
C1276      N1277   1.432       .  S
N1277      O1282   1.262   1_655  A
N1280      O1284   1.261       .  A
N1280      O1283   1.263       .  A
C1285      C1286   1.401       .  A
C1285      C1290   1.389       .  A
C1285      H1292   1.084       .  S
C1286      C1287   1.412       .  A
C1287      C1288   1.411       .  A
C1287      N1294   1.428       .  S
C1288      C1289   1.409       .  A
C1288      H1293   1.083       .  S
C1289      C1290   1.415       .  A
C1290      N1291   1.432       .  S
N1291      O1295   1.262       .  A
N1291      O1296   1.262       .  A
N1294      O1298   1.262       .  A
N1294      O1297   1.262       .  A
C1299      C1300   1.392       .  A
C1299      C1304   1.394       .  A
C1299      H1306   1.084       .  S
C1300      C1301   1.415       .  A
C1301      C1302   1.407       .  A
C1301      N1308   1.431       .  S
C1302      C1303   1.401       .  A
C1302      H1307   1.084       .  S
C1303      C1304   1.417       .  A
C1304      N1305   1.429       .  S
N1305      O1309   1.261       .  A
N1305      O1310   1.262       .  A
N1308      O1312   1.262       .  A
N1308      O1311   1.262       .  A
C1313      C1314   1.409       .  A
C1313      C1318   1.405       .  A
C1313      H1320   1.084       .  S
C1314      C1315   1.417       .  A
C1315      C1316   1.398       .  A
C1315      N1322   1.429       .  S
C1316      C1317   1.401       .  A
C1316      H1321   1.084       .  S
C1317      C1318   1.409       .  A
C1318      N1319   1.430       .  S
N1319      O1323   1.262       .  A
N1319      O1324   1.262       .  A
N1322      O1326   1.262       .  A
N1322      O1325   1.262       .  A
C1327      C1328   1.403       .  A
C1327      C1332   1.410       .  A
C1327      H1334   1.084       .  S
C1328      C1329   1.414   1_545  A
C1329      C1330   1.395   1_565  A
C1329      N1336   1.430       .  S
C1330      C1331   1.403       .  A
C1330      H1335   1.084   1_545  S
C1331      C1332   1.419       .  A
C1332      N1333   1.428       .  S
N1333      O1337   1.262       .  A
N1333      O1338   1.261       .  A
N1336      O1340   1.261       .  A
N1336      O1339   1.262       .  A
C1341      C1342   1.414       .  A
C1341      C1346   1.415       .  A
C1341      H1348   1.083       .  S
C1342      C1343   1.403       .  A
C1343      C1344   1.391       .  A
C1343      N1350   1.433       .  S
C1344      C1345   1.408       .  A
C1344      H1349   1.084   1_565  S
C1345      C1346   1.409       .  A
C1346      N1347   1.427       .  S
N1347      O1351   1.261       .  A
N1347      O1352   1.262       .  A
N1350      O1354   1.262       .  A
N1350      O1353   1.262   1_565  A
C1355      C1356   1.391   1_455  A
C1355      H1362   1.084   1_455  S
C1356      C1357   1.418       .  A
C1357      N1364   1.433   1_545  S
C1358      C1359   1.406       .  A
C1358      H1363   1.082       .  S
C1359      C1360   1.432   1_565  A
C1360      N1361   1.429       .  S
N1361      O1365   1.262       .  A
N1361      O1366   1.262       .  A
N1364      O1368   1.262   1_565  A
N1364      O1367   1.262       .  A
C1369      C1370   1.402       .  A
C1369      C1374   1.395       .  A
C1369      H1376   1.085       .  S
C1370      C1371   1.397       .  A
C1371      C1372   1.390       .  A
C1371      N1378   1.429       .  S
C1372      C1373   1.404       .  A
C1372      H1377   1.085       .  S
C1373      C1374   1.407       .  A
C1374      N1375   1.440       .  S
N1375      O1379   1.263       .  A
N1375      O1380   1.263       .  A
N1378      O1382   1.262       .  A
N1378      O1381   1.261   1_545  A
C1383      C1388   1.406       .  A
C1383      H1390   1.083       .  S
C1384      C1385   1.410       .  A
C1385      N1392   1.430       .  S
C1386      C1387   1.416       .  A
C1386      H1391   1.083       .  S
C1387      C1388   1.412       .  A
C1388      N1389   1.428       .  S
N1389      O1393   1.262       .  A
N1389      O1394   1.262       .  A
N1392      O1396   1.262       .  A
N1392      O1395   1.261       .  A
C1397      C1398   1.412       .  A
C1397      C1402   1.413       .  A
C1397      H1404   1.084       .  S
C1398      C1399   1.402       .  A
C1399      C1400   1.389       .  A
C1399      N1406   1.426       .  S
C1400      C1401   1.404       .  A
C1400      H1405   1.084       .  S
C1401      C1402   1.410       .  A
C1402      N1403   1.428       .  S
N1403      O1407   1.262       .  A
N1403      O1408   1.262       .  A
N1406      O1410   1.262       .  A
N1406      O1409   1.262       .  A
C1411      C1412   1.401       .  A
C1411      C1416   1.409       .  A
C1411      H1418   1.084       .  S
C1412      C1413   1.413       .  A
C1413      C1414   1.399       .  A
C1413      N1420   1.429       .  S
C1414      C1415   1.404       .  A
C1414      H1419   1.084       .  S
C1415      C1416   1.421       .  A
C1416      N1417   1.428       .  S
N1417      O1421   1.262       .  A
N1417      O1422   1.261       .  A
N1420      O1424   1.261       .  A
N1420      O1423   1.262       .  A
C1425      C1426   1.402       .  A
C1425      C1430   1.414       .  A
C1425      H1432   1.084       .  S
C1426      C1939   1.419   1_554  A
C1427      C1938   1.418       .  A
C1427      C1428   1.410       .  A
C1427      N1434   1.431       .  S
C1428      C1429   1.405       .  A
C1428      H1433   1.084       .  S
C1429      C1942   1.426       .  A
C1430      C1941   1.427   1_554  A
C1430      N1431   1.431       .  S
N1431      O1435   1.262       .  A
N1431      O1436   1.262       .  A
N1434      O1438   1.262       .  A
N1434      O1437   1.262       .  A
C1439      C1444   1.388   1_554  A
C1440      C1953   1.415   1_554  A
C1441      C1952   1.415       .  A
C1441      N1448   1.434       .  S
C1442      C1443   1.400       .  A
C1442      H1447   1.085       .  S
C1443      C1956   1.396       .  A
C1444      C1955   1.399       .  A
C1444      N1445   1.430   1_556  S
N1445      O1449   1.262   1_554  A
N1445      O1450   1.262       .  A
N1448      O1452   1.262       .  A
N1448      O1451   1.262       .  A
C1453      C1454   1.399       .  A
C1453      C1458   1.408       .  A
C1453      H1460   1.084       .  S
C1454      C1455   1.420       .  A
C1455      C1456   1.404       .  A
C1455      N1462   1.434       .  S
C1456      C1457   1.400       .  A
C1456      H1461   1.084       .  S
C1457      C1458   1.426       .  A
C1458      N1459   1.437       .  S
N1459      O1463   1.263       .  A
N1459      O1464   1.263       .  A
N1462      O1466   1.262       .  A
N1462      O1465   1.262       .  A
C1467      C1468   1.399       .  A
C1467      C1472   1.405       .  A
C1467      H1474   1.084       .  S
C1468      C1981   1.415       .  A
C1469      C1980   1.416       .  A
C1469      C1470   1.401       .  A
C1469      N1476   1.433       .  S
C1470      C1983   1.403       .  A
C1470      H1475   1.084       .  S
C1471      C1578   1.495       .  S
C1471      C1982   1.404       .  A
C1471      C1472   1.423       .  A
C1472      N1473   1.429       .  S
N1473      O1477   1.262       .  A
N1473      O1478   1.262       .  A
N1476      O1480   1.262       .  A
N1476      O1479   1.262       .  A
C1481      C1994   1.421   1_544  A
C1481      H1488   1.083       .  S
C1482      C1993   1.421   1_565  A
C1483      C1484   1.414       .  A
C1483      N1490   1.433       .  S
C1484      C1997   1.413   1_565  A
C1484      H1489   1.084       .  S
C1485      C1996   1.414   1_544  A
C1485      C1486   1.408       .  A
C1486      N1487   1.433       .  S
N1487      O1492   1.262       .  A
N1490      O1494   1.262       .  A
C1495      C1496   1.399   1_565  A
C1495      C1500   1.395       .  A
C1495      H1502   1.085       .  S
C1496      C2009   1.401       .  A
C1497      C2008   1.397       .  A
C1497      C1498   1.393       .  A
C1497      N1504   1.435       .  S
C1498      C1499   1.414       .  A
C1498      H1503   1.035   1_556  S
C1499      C2012   1.410   1_545  A
C1500      C2011   1.416   1_565  A
C1500      N1501   1.434       .  S
N1501      O1505   1.262       .  A
N1501      O1506   1.262       .  A
N1504      O1508   1.262   1_556  A
N1504      O2019   1.262       .  A
O1507      N2016   1.263       .  A
C1509      C1510   1.392       .  A
C1509      C1514   1.394   1_565  A
C1509      H1516   1.085   1_565  S
C1510      C1511   1.414       .  A
C1511      C1512   1.410       .  A
C1511      N1518   1.429       .  S
C1512      C1513   1.405   1_565  A
C1512      H1517   1.083       .  S
C1513      C1514   1.421       .  A
C1514      N1515   1.428       .  S
N1515      O1519   1.260       .  A
N1515      O1520   1.262       .  A
N1518      O1522   1.262       .  A
N1518      O1521   1.262       .  A
C1523      C1524   1.405   1_545  A
C1523      C1528   1.404       .  A
C1523      H1530   1.084       .  S
C1524      C1525   1.415       .  A
C1525      C1526   1.395       .  A
C1525      N1532   1.431       .  S
C1526      C1527   1.403   1_565  A
C1526      H1531   1.084       .  S
C1527      C1528   1.414       .  A
C1528      N1529   1.429       .  S
N1529      O1533   1.262       .  A
N1529      O1534   1.262       .  A
N1532      O1536   1.262       .  A
N1532      O1535   1.262       .  A
C1538      O1548   1.256       .  A
C1538      O1539   1.277       .  A
C1538      C1966   1.491       .  S
O1539     Al1541   1.973       .  S
O1540      C1542   1.253       .  A
O1540     Al1541   1.882       .  S
Al1541     O1549   1.938       .  S
Al1541     O1551   1.990       .  S
Al1541     O1550   1.783       .  S
C1542      O1555   1.259       .  A
C1542      C2036   1.485       .  S
O1543      C1553   1.257       .  A
O1543     Al1545   1.899       .  S
O1544      C1557   1.261       .  A
Al1545     O1555   1.921       .  S
Al1545     O1550   1.786       .  S
O1546      C1553   1.253       .  A
O1546     Al1554   1.857       .  S
O1548     Al1554   1.855       .  S
O1549      C1556   1.266       .  A
O1550     Al1554   1.785       .  S
O1551      C1552   1.283       .  A
C1552      C1994   1.515       .  S
C1553      C2008   1.445   1_565  S
C1556      C1980   1.481   1_556  S
C1557      O1558   1.269       .  A
C1557      C2022   1.468       .  S
O1559      C1574   1.266       .  A
C1560      O1570   1.269       .  A
C1560      O1561   1.262       .  A
C1560      C1896   1.501       .  S
O1562      C1564   1.248       .  A
Al1563     O1571   1.873   1_554  S
Al1563     O1573   1.924   1_554  S
C1564      O1577   1.260       .  A
C1564      C1952   1.465       .  S
O1565      C1575   1.268       .  A
O1565     Al1567   1.934       .  S
O1566      C1579   1.283       .  A
O1566     Al1576   1.967       .  S
Al1567     O1580   1.893       .  S
Al1567     O1577   1.918       .  S
Al1567     O1572   1.786       .  S
O1568      C1575   1.260       .  A
O1568     Al1576   1.876       .  S
O1569      C1578   1.272       .  A
O1569     Al1576   1.958       .  S
O1570     Al1576   1.947       .  S
O1572     Al1576   1.774       .  S
O1573      C1574   1.263       .  A
C1574      C1927   1.495       .  S
C1575      C1913   1.485       .  S
C1579      O1580   1.262       .  A
C1579      C1938   1.498       .  S
O1581      C1596   1.256       .  A
O1581     Al1589   1.877       .  S
C1582      O1592   1.255       .  A
C1582      O1583   1.276       .  A
C1582      C1969   1.491       .  S
O1583     Al1585   1.976       .  S
O1584      C1586   1.256       .  A
O1584     Al1585   1.876       .  S
Al1585     O1593   1.919       .  S
Al1585     O1595   1.995       .  S
Al1585     O1594   1.783       .  S
C1586      O1599   1.267   1_565  A
C1586      C1840   1.484   1_565  S
O1587      C1597   1.257   1_545  A
O1587     Al1589   1.894   1_545  S
O1588      C1601   1.262       .  A
O1588     Al1598   1.893       .  S
Al1589     O1602   1.945       .  S
Al1589     O1599   1.953   1_565  S
Al1589     O1594   1.782       .  S
O1590      C1597   1.256       .  A
O1590     Al1598   1.872       .  S
O1591      C1600   1.258       .  A
O1591     Al1598   1.889       .  S
O1592     Al1598   1.858       .  S
O1593      C1600   1.267       .  A
O1594     Al1598   1.780       .  S
O1595      C1596   1.280       .  A
C1596      C1871   1.512       .  S
C1597      C1882   1.442   1_565  S
C1600      C1829   1.480       .  S
C1601      O1602   1.272       .  A
C1601      C1854   1.483       .  S
O1603      C1618   1.260       .  A
O1603     Al1611   1.883       .  S
C1604      O1614   1.271       .  A
C1604      O1605   1.269       .  A
C1604      C1899   1.506       .  S
O1605     Al1607   1.936       .  S
O1606      C1608   1.246       .  A
O1606     Al1607   1.841       .  S
Al1607     O1615   1.892       .  S
Al1607     O1617   1.940       .  S
Al1607     O1616   1.782       .  S
C1608      O1621   1.255       .  A
C1608      C1784   1.432       .  S
O1609      C1619   1.265       .  A
O1609     Al1611   1.935       .  S
O1610      C1623   1.283       .  A
O1610     Al1620   1.951       .  S
Al1611     O1624   1.887       .  S
Al1611     O1621   1.891       .  S
Al1611     O1616   1.778       .  S
O1612      C1619   1.256       .  A
O1612     Al1620   1.886       .  S
O1613      C1622   1.262       .  A
O1613     Al1620   1.927       .  S
O1614     Al1620   1.931       .  S
O1615      C1622   1.258       .  A
O1616     Al1620   1.774       .  S
O1617      C1618   1.267       .  A
C1618      C1801   1.485       .  S
C1619      C1815   1.480       .  S
C1622      C1826   1.494       .  S
C1623      O1624   1.262       .  A
C1623      C1773   1.487       .  S
O1625      C1640   1.252       .  A
O1625     Al1633   1.862       .  S
C1626      O1636   1.256       .  A
C1626      O1627   1.278       .  A
C1626      C1742   1.494       .  S
O1627     Al1629   1.978       .  S
O1628      C1630   1.255       .  A
O1628     Al1629   1.879       .  S
Al1629     O1637   1.929       .  S
Al1629     O1639   1.997       .  S
Al1629     O1638   1.784       .  S
C1630      O1643   1.266       .  A
C1630      C1924   1.484       .  S
O1631      C1641   1.258       .  A
O1631     Al1633   1.897       .  S
O1632      C1645   1.263       .  A
O1632     Al1642   1.898       .  S
Al1633     O1646   1.942       .  S
Al1633     O1643   1.952       .  S
Al1633     O1638   1.777       .  S
O1634      C1641   1.253       .  A
O1634     Al1642   1.854       .  S
O1635      C1644   1.252       .  A
O1635     Al1642   1.859       .  S
O1636     Al1642   1.857       .  S
O1637      C1644   1.266       .  A
O1638     Al1642   1.778       .  S
O1639      C1640   1.281       .  A
C1640      C1770   1.506       .  S
C1641      C1787   1.436       .  S
C1644      C1756   1.472       .  S
C1645      O1646   1.272       .  A
C1645      C1910   1.481       .  S
O1647      C1662   1.262       .  A
O1647     Al1655   1.881       .  S
C1648      O1658   1.268       .  A
C1648      O1649   1.265       .  A
C1648      C1728   1.487       .  S
O1649     Al1651   1.941       .  S
O1650      C1652   1.247       .  A
O1650     Al1651   1.856       .  S
Al1651     O1659   1.876       .  S
Al1651     O1661   1.946       .  S
Al1651     O1660   1.778       .  S
C1652      O1665   1.263       .  A
C1652      C1885   1.458       .  S
O1653      C1663   1.268       .  A
O1653     Al1655   1.932       .  S
O1654      C1667   1.281       .  A
O1654     Al1664   1.949       .  S
Al1655     O1668   1.907       .  S
Al1655     O1665   1.925       .  S
Al1655     O1660   1.773       .  S
O1656      C1663   1.260       .  A
O1656     Al1664   1.896       .  S
O1657      C1666   1.267       .  A
O1657     Al1664   1.941       .  S
O1658     Al1664   1.921       .  S
O1659      C1666   1.256       .  A
O1660     Al1664   1.770       .  S
O1661      C1662   1.269       .  A
C1662      C2039   1.489       .  S
C1663      C2025   1.483   1_545  S
C1666      C1759   1.489       .  S
C1667      O1668   1.266       .  A
C1667      C1868   1.492       .  S
O1669      C1684   1.265       .  A
C1670      O1680   1.268       .  A
C1670      O1671   1.264       .  A
C1670      C1731   1.491       .  S
O1672      C1674   1.249       .  A
Al1673     O1681   1.881   1_554  S
Al1673     O1683   1.921   1_554  S
C1674      O1687   1.260       .  A
C1674      C2011   1.472       .  S
O1675      C1685   1.270       .  A
O1675     Al1677   1.950       .  S
O1676      C1689   1.285       .  A
O1676     Al1686   1.969       .  S
Al1677     O1690   1.893       .  S
Al1677     O1687   1.917       .  S
Al1677     O1682   1.784       .  S
O1678      C1685   1.257       .  A
O1678     Al1686   1.868       .  S
O1679      C1688   1.266       .  A
O1679     Al1686   1.941       .  S
O1680     Al1686   1.935       .  S
O1682     Al1686   1.777       .  S
O1683      C1684   1.263       .  A
C1684      C1843   1.489       .  S
C1685      C1857   1.494   1_545  S
C1689      O1690   1.263       .  A
C1689      C1997   1.502       .  S
C1692      O1702   1.254       .  A
C1692      O1693   1.276       .  A
C1692      C1745   1.487       .  S
O1693     Al1695   1.972       .  S
O1694      C1696   1.256       .  A
O1694     Al1695   1.870       .  S
Al1695     O1703   1.936       .  S
Al1695     O1705   1.989       .  S
Al1695     O1704   1.777       .  S
C1696      O1709   1.263       .  A
C1696      C1798   1.491       .  S
O1697      C1707   1.257       .  A
O1697     Al1699   1.895       .  S
O1698      C1711   1.260       .  A
Al1699     O1709   1.941       .  S
Al1699     O1704   1.788       .  S
O1700      C1707   1.254       .  A
O1700     Al1708   1.859       .  S
O1702     Al1708   1.854       .  S
O1703      C1710   1.268       .  A
O1704     Al1708   1.781       .  S
O1705      C1706   1.281       .  A
C1706      C1941   1.510       .  S
C1707      C1955   1.441       .  S
C1710      C1717   1.484   1_556  S
C1711      O1712   1.271       .  A
C1711      C1812   1.467       .  S
C1713      C1718   1.400       .  A
C1713      H1720   1.084       .  S
C1714      C1715   1.422   1_554  A
C1715      C1716   1.405       .  A
C1715      N1722   1.428       .  S
C1716      C1717   1.399   1_556  A
C1716      H1721   1.084       .  S
C1718      N1719   1.432       .  S
N1719      O1723   1.262       .  A
N1719      O1724   1.262       .  A
N1722      O1726   1.262       .  A
N1722      O1725   1.261       .  A
C1727      C1728   1.399       .  A
C1727      C1732   1.402       .  A
C1727      H1734   1.085       .  S
C1728      C1729   1.412       .  A
C1729      C1730   1.414       .  A
C1729      N1736   1.428       .  S
C1730      C1731   1.407       .  A
C1730      H1735   1.083       .  S
C1731      C1732   1.418       .  A
C1732      N1733   1.434       .  S
N1733      O1737   1.259       .  A
N1733      O1738   1.263       .  A
N1736      O1740   1.261       .  A
N1736      O1739   1.262       .  A
C1741      C1742   1.401       .  A
C1741      H1748   1.084       .  S
C1743      C1744   1.404       .  A
C1743      N1750   1.433       .  S
C1744      C1745   1.398       .  A
C1744      H1749   1.084       .  S
C1745      C1746   1.419       .  A
N1747      O1751   1.262       .  A
N1750      O1754   1.262       .  A
N1750      O1753   1.262       .  A
C1755      C1756   1.404       .  A
C1755      C1760   1.396       .  A
C1755      H1762   1.085       .  S
C1756      C1757   1.406       .  A
C1757      C1758   1.404       .  A
C1757      N1764   1.429       .  S
C1758      C1759   1.412       .  A
C1758      H1763   1.084       .  S
C1759      C1760   1.414       .  A
C1760      N1761   1.429       .  S
N1761      O1765   1.262       .  A
N1761      O1766   1.262       .  A
N1764      O1768   1.262       .  A
N1764      O1767   1.262       .  A
C1769      C1770   1.402       .  A
C1769      C1774   1.409       .  A
C1769      H1776   1.083       .  S
C1770      C1771   1.431       .  A
C1771      C1772   1.401       .  A
C1771      N1778   1.426       .  S
C1772      C1773   1.388       .  A
C1772      H1777   1.084       .  S
C1773      C1774   1.421       .  A
C1774      N1775   1.431       .  S
N1775      O1779   1.262       .  A
N1775      O1780   1.262       .  A
N1778      O1782   1.262       .  A
N1778      O1781   1.262       .  A
C1783      C1784   1.403       .  A
C1783      H1790   1.084       .  S
C1784      C1785   1.396       .  A
C1785      N1792   1.435       .  S
C1786      C1787   1.406       .  A
C1786      H1791   1.085       .  S
C1787      C1788   1.399       .  A
C1788      N1789   1.430       .  S
N1789      O1794   1.262   1_655  A
N1792      O1796   1.261       .  A
N1792      O1795   1.263       .  A
C1797      C1798   1.403       .  A
C1797      C1802   1.390       .  A
C1797      H1804   1.084       .  S
C1798      C1799   1.415       .  A
C1799      C1800   1.412       .  A
C1799      N1806   1.428       .  S
C1800      C1801   1.407       .  A
C1800      H1805   1.083       .  S
C1801      C1802   1.414       .  A
C1802      N1803   1.430       .  S
N1803      O1807   1.262       .  A
N1803      O1808   1.262       .  A
N1806      O1810   1.262       .  A
N1806      O1809   1.262       .  A
C1811      C1812   1.391       .  A
C1811      C1816   1.394       .  A
C1811      H1818   1.084       .  S
C1812      C1813   1.414       .  A
C1813      C1814   1.407       .  A
C1813      N1820   1.430       .  S
C1814      C1815   1.402       .  A
C1814      H1819   1.084       .  S
C1815      C1816   1.417       .  A
C1816      N1817   1.429       .  S
N1817      O1821   1.261       .  A
N1817      O1822   1.262       .  A
N1820      O1824   1.262       .  A
N1820      O1823   1.262       .  A
C1825      C1826   1.410       .  A
C1825      C1830   1.405       .  A
C1825      H1832   1.083       .  S
C1826      C1827   1.417       .  A
C1827      C1828   1.401       .  A
C1827      N1834   1.429       .  S
C1828      C1829   1.403       .  A
C1828      H1833   1.084       .  S
C1829      C1830   1.409       .  A
C1830      N1831   1.429       .  S
N1831      O1835   1.262       .  A
N1831      O1836   1.262       .  A
N1834      O1838   1.262       .  A
N1834      O1837   1.262       .  A
C1839      C1840   1.402       .  A
C1839      C1844   1.408       .  A
C1839      H1846   1.084       .  S
C1840      C1841   1.415   1_545  A
C1841      C1842   1.397       .  A
C1841      N1848   1.430       .  S
C1842      C1843   1.402   1_565  A
C1842      H1847   1.084       .  S
C1843      C1844   1.417       .  A
C1844      N1845   1.428       .  S
N1845      O1849   1.262       .  A
N1845      O1850   1.261       .  A
N1848      O1852   1.261       .  A
N1848      O1851   1.262       .  A
C1853      C1854   1.412       .  A
C1853      C1858   1.417       .  A
C1853      H1860   1.084       .  S
C1854      C1855   1.402       .  A
C1855      C1856   1.392       .  A
C1855      N1862   1.431   1_565  S
C1856      C1857   1.409       .  A
C1856      H1861   1.084   1_565  S
C1857      C1858   1.415       .  A
C1858      N1859   1.433       .  S
N1859      O1863   1.262       .  A
N1859      O1864   1.262       .  A
N1862      O1866   1.262   1_545  A
N1862      O1865   1.262       .  A
C1867      C1868   1.392   1_455  A
C1867      H1874   1.084   1_455  S
C1868      C1869   1.417   1_545  A
C1869      N1876   1.432       .  S
C1870      C1871   1.407       .  A
C1870      H1875   1.083       .  S
C1871      C1872   1.432   1_565  A
C1872      N1873   1.429       .  S
N1873      O1877   1.262       .  A
N1873      O1878   1.262       .  A
N1876      O1880   1.262   1_565  A
N1876      O1879   1.262       .  A
C1881      C1882   1.400       .  A
C1881      C1886   1.393       .  A
C1881      H1888   1.085       .  S
C1882      C1883   1.399       .  A
C1883      C1884   1.392       .  A
C1883      N1890   1.429   1_545  S
C1884      C1885   1.405       .  A
C1884      H1889   1.084       .  S
C1885      C1886   1.410       .  A
C1886      N1887   1.430       .  S
N1887      O1891   1.262       .  A
N1887      O1892   1.262       .  A
N1890      O1894   1.262   1_565  A
N1890      O1893   1.260       .  A
C1895      C1900   1.406       .  A
C1895      H1902   1.083       .  S
C1896      C1897   1.410       .  A
C1897      N1904   1.430       .  S
C1898      C1899   1.416       .  A
C1898      H1903   1.083       .  S
C1899      C1900   1.413       .  A
C1900      N1901   1.429       .  S
N1901      O1905   1.262       .  A
N1901      O1906   1.262       .  A
N1904      O1908   1.262       .  A
N1904      O1907   1.262       .  A
C1909      C1910   1.411       .  A
C1909      C1914   1.414       .  A
C1909      H1916   1.084       .  S
C1910      C1911   1.402       .  A
C1911      C1912   1.389       .  A
C1911      N1918   1.427       .  S
C1912      C1913   1.404       .  A
C1912      H1917   1.084       .  S
C1913      C1914   1.412       .  A
C1914      N1915   1.431       .  S
N1915      O1919   1.262       .  A
N1915      O1920   1.262       .  A
N1918      O1922   1.262       .  A
N1918      O1921   1.262       .  A
C1923      C1924   1.400       .  A
C1923      C1928   1.408       .  A
C1923      H1930   1.084       .  S
C1924      C1925   1.414       .  A
C1925      C1926   1.400       .  A
C1925      N1932   1.430       .  S
C1926      C1927   1.403       .  A
C1926      H1931   1.084       .  S
C1927      C1928   1.421       .  A
C1928      N1929   1.428       .  S
N1929      O1933   1.262       .  A
N1929      O1934   1.261       .  A
N1932      O1936   1.262       .  A
N1932      O1935   1.262       .  A
C1937      C1938   1.402       .  A
C1937      C1942   1.414       .  A
C1937      H1944   1.084       .  S
C1939      C1940   1.409       .  A
C1939      N1946   1.431       .  S
C1940      C1941   1.404       .  A
C1940      H1945   1.084       .  S
C1942      N1943   1.431       .  S
N1943      O1947   1.262       .  A
N1943      O1948   1.262       .  A
N1946      O1950   1.262       .  A
N1946      O1949   1.262       .  A
C1951      C1956   1.386       .  A
C1953      N1960   1.434       .  S
C1954      C1955   1.399       .  A
C1954      H1959   1.085       .  S
C1956      N1957   1.430       .  S
N1957      O1961   1.262       .  A
N1957      O1962   1.262       .  A
N1960      O1964   1.262       .  A
N1960      O1963   1.262       .  A
C1965      C1966   1.399       .  A
C1965      C1970   1.408       .  A
C1965      H1972   1.083       .  S
C1966      C1967   1.422       .  A
C1967      C1968   1.407       .  A
C1967      N1974   1.437       .  S
C1968      C1969   1.399       .  A
C1968      H1973   1.083       .  S
C1969      C1970   1.424       .  A
C1970      N1971   1.440       .  S
N1971      O1975   1.263       .  A
N1971      O1976   1.263       .  A
N1974      O1978   1.263       .  A
N1974      O1977   1.262       .  A
C1979      C1980   1.400   1_556  A
C1979      C1984   1.406       .  A
C1979      H1986   1.084       .  S
C1981      C1982   1.402       .  A
C1981      N1988   1.432       .  S
C1982      H1987   1.084       .  S
C1983      C1984   1.423   1_554  A
C1984      N1985   1.429       .  S
N1985      O1989   1.262       .  A
N1985      O1990   1.262       .  A
N1988      O1992   1.262       .  A
N1988      O1991   1.262       .  A
C1993      H2000   1.083       .  S
C1995      C1996   1.413       .  A
C1995      N2002   1.433       .  S
C1996      H2001   1.084       .  S
C1997      C1998   1.408       .  A
C1998      N1999   1.432       .  S
N1999      O2004   1.262       .  A
N2002      O2006   1.262       .  A
C2007      C2008   1.405   1_565  A
C2007      C2012   1.397       .  A
C2007      H2014   1.072       .  S
C2009      C2010   1.394       .  A
C2009      N2016   1.436       .  S
C2010      C2011   1.410       .  A
C2010      H2015   1.084       .  S
C2012      N2013   1.431       .  S
N2013      O2017   1.262       .  A
N2013      O2018   1.262       .  A
N2016      O2020   1.262       .  A
C2021      C2022   1.392       .  A
C2021      C2026   1.394   1_565  A
C2021      H2028   1.084       .  S
C2022      C2023   1.413       .  A
C2023      C2024   1.406       .  A
C2023      N2030   1.429       .  S
C2024      C2025   1.403       .  A
C2024      H2029   1.084       .  S
C2025      C2026   1.418   1_565  A
C2026      N2027   1.428       .  S
N2027      O2031   1.261   1_545  A
N2027      O2032   1.262       .  A
N2030      O2034   1.262       .  A
N2030      O2033   1.262       .  A
C2035      C2036   1.407   1_545  A
C2035      C2040   1.408       .  A
C2035      H2042   1.084       .  S
C2036      C2037   1.413       .  A
C2037      C2038   1.396       .  A
C2037      N2044   1.432       .  S
C2038      C2039   1.405   1_565  A
C2038      H2043   1.084       .  S
C2039      C2040   1.414       .  A
C2040      N2041   1.428       .  S
N2041      O2045   1.262       .  A
N2041      O2046   1.262       .  A
N2044      O2048   1.262       .  A
N2044      O2047   1.262       .  A
