geometry optimzed in LAMMPS
_audit_creation_date              2020-12-01 
_audit_creation_method            'lammps2cif' 
_symmetry_space_group_name_H-M    'P1' 
_symmetry_Int_Tables_number       1 
_symmetry_cell_setting            triclinic 
loop_ 
_symmetry_equiv_pos_as_xyz 
  x,y,z 
_cell_length_a                    41.75517057 
_cell_length_b                    33.29152738601402 
_cell_length_c                    40.075777958902286 
_cell_angle_alpha                 89.91410456705474 
_cell_angle_beta                  99.22990352098947 
_cell_angle_gamma                 89.80782342158481 
loop_ 
_atom_site_label 
_atom_site_type_symbol 
_atom_site_fract_x 
_atom_site_fract_y 
_atom_site_fract_z 
_atom_site_charge 
O1          O  0.15704168  0.55841784  0.34386862    -0.82000
C2          C  0.05169020  0.65827043  0.34366230     0.97400
O3          O  0.07762478  0.64816273  0.36230780    -0.71100
O4          O  0.12217485  0.59636597  0.38818872    -0.74700
Al5        Al  0.11792034  0.63476038  0.35027174     1.49000
C6          C  0.10888946  0.56218330  0.38987178     0.92600
O7          O  0.07074043  0.52697426  0.30172524    -0.80900
O8          O  0.08257503  0.57739707  0.25350662    -0.74500
Al9        Al  0.11234793  0.54863756  0.32254342     1.90100
O10         O  0.03980571  0.57993434  0.29995508    -0.73600
O11         O  0.09680844  0.65237571  0.26959126    -0.73400
O12         O  0.04964181  0.65556971  0.31181815    -0.79100
O13         O  0.11675114  0.67983236  0.31828926    -0.77300
O14         O  0.10039241  0.59988955  0.31947056    -1.13400
O15         O  0.16044190  0.62406905  0.34218169    -0.72600
C16         C  0.17399008  0.59017289  0.34713624     0.98100
C17         C  0.04289607  0.54312313  0.29510296     0.94500
Al18       Al  0.06977375  0.61537433  0.28619541     1.55600
O19         O  0.09784193  0.54317071  0.36358065    -0.77200
C20         C  0.11096933  0.68102063  0.28606681     0.98700
C21         C  0.10676959  0.55381914  0.25397085     0.93600
O22         O  0.12704558  0.54958098  0.28064955    -0.82500
O23         O  0.32872526  0.55747049  0.40109608    -0.82000
C24         C  0.43703155  0.65313118  0.40358624     0.97400
O25         O  0.41188015  0.64304693  0.38371208    -0.71100
O26         O  0.36656204  0.59225992  0.35702654    -0.74700
Al27       Al  0.37030740  0.63166973  0.39459516     1.49000
C28         C  0.37880987  0.55707934  0.35627436     0.92600
O29         O  0.41323311  0.52226573  0.44574224    -0.80900
O30         O  0.39822820  0.58023974  0.99394521    -0.74500
Al31       Al  0.37240675  0.54567828  0.42366193     1.90100
O32         O  0.44463919  0.57429895  0.44558449    -0.73600
O33         O  0.38939165  0.64888745  0.47574032    -0.73400
O34         O  0.43738251  0.65038772  0.43513481    -0.79100
O35         O  0.37186161  0.67763567  0.42671670    -0.77300
O36         O  0.38572154  0.59647511  0.42608415    -1.13400
O37         O  0.32688158  0.62330924  0.40132682    -0.72600
C38         C  0.31254408  0.58991765  0.39740708     0.98100
C39         C  0.44123059  0.53775298  0.45156707     0.94500
Al40       Al  0.41592785  0.61098357  0.45965636     1.55600
O41         O  0.38760792  0.53774642  0.38308399    -0.77200
C42         C  0.37714269  0.67864341  0.45909984     0.98700
C43         C  0.37350650  0.55796225  0.99365527     0.93600
O44         O  0.35676927  0.54896225  0.46538317    -0.82500
O45         O  0.36141920  0.45617211  0.21575702    -0.82000
C46         C  0.43427051  0.35124268  0.14769781     0.97400
O47         O  0.43617281  0.35128377  0.17966109    -0.71100
O48         O  0.44740942  0.42586670  0.19269087    -0.74700
Al49       Al  0.41766389  0.39093090  0.20698485     1.49000
C50         C  0.44482051  0.46275761  0.19714926     0.92600
O51         O  0.38808096  0.46527527  0.13164078    -0.80900
O52         O  0.32657294  0.38340826  0.15447481    -0.74500
Al53       Al  0.37500918  0.45848223  0.17320590     1.90100
O54         O  0.36239391  0.41337130  0.10642285    -0.73600
O55         O  0.37093878  0.32646857  0.17513363    -0.73400
O56         O  0.40810005  0.36147863  0.12960349    -0.79100
O57         O  0.39074157  0.35416158  0.22361075    -0.77300
O58         O  0.38663004  0.40733579  0.17480651    -1.13400
O59         O  0.40650991  0.42864737  0.24136605    -0.72600
C60         C  0.38209660  0.45164819  0.24207136     0.98100
C61         C  0.37599056  0.44752253  0.10506808     0.94500
Al62       Al  0.36825577  0.37332075  0.14376488     1.55600
O63         O  0.41700685  0.47913304  0.19266609    -0.77200
C64         C  0.37770116  0.32463375  0.20740734     0.98700
C65         C  0.31345774  0.41767182  0.15088839     0.93600
O66         O  0.33055498  0.44919182  0.15322056    -0.82500
O67         O  0.13217721  0.45522715  0.02670661    -0.82000
C68         C  0.05470065  0.35443825  0.09407088     0.97400
O69         O  0.05436574  0.35444996  0.06240936    -0.71100
O70         O  0.04486654  0.42958222  0.04859425    -0.74700
Al71       Al  0.07446375  0.39327904  0.03596428     1.49000
C72         C  0.04762715  0.46632246  0.04301930     0.92600
O73         O  0.10332069  0.47164221  0.10883545    -0.80900
O74         O  0.16339908  0.38548092  0.09501359    -0.74500
Al75       Al  0.11732628  0.46109802  0.06847336     1.90100
O76         O  0.12340957  0.41859729  0.13744781    -0.73600
O77         O  0.12009797  0.32974633  0.07168395    -0.73400
O78         O  0.07953172  0.36638497  0.11320866    -0.79100
O79         O  0.10192744  0.35548531  0.02161518    -0.77300
O80         O  0.10458693  0.41030335  0.06874511    -1.13400
O81         O  0.08910620  0.42796744  0.50033048    -0.72600
C82         C  0.11298377  0.45154318  0.50009024     0.98100
C83         C  0.11133509  0.45394885  0.13650705     0.94500
Al84       Al  0.12052840  0.37727928  0.10180286     1.55600
O85         O  0.07551744  0.48236139  0.04696342    -0.77200
C86         C  0.11507951  0.32695890  0.03937815     0.98700
C87         C  0.17733009  0.41905713  0.09726705     0.93600
O88         O  0.16127027  0.45115727  0.09045613    -0.82500
O89         O  0.39253979  0.94982328  0.02627637    -0.82000
C90         C  0.31008031  0.85681967  0.09425076     0.97400
O91         O  0.30869644  0.85811806  0.06242752    -0.71100
O92         O  0.30319733  0.93357363  0.04648445    -0.74700
Al93       Al  0.33101354  0.89362156  0.03515280     1.49000
C94         C  0.30856343  0.96948577  0.03991807     0.92600
O95         O  0.36253563  0.97125843  0.10708814    -0.80900
O96         O  0.42053974  0.88129113  0.09371739    -0.74500
Al97       Al  0.37706912  0.95868810  0.06719672     1.90100
O98         O  0.38171585  0.91788001  0.13620367    -0.73600
O99         O  0.37455529  0.82736343  0.07141005    -0.73400
O100        O  0.33580752  0.86684320  0.11300952    -0.79100
O101        O  0.35607759  0.85277538  0.02125720    -0.77300
O102        O  0.36199062  0.90893520  0.06781279    -1.13400
O103        O  0.34645911  0.92289506  0.50101212    -0.72600
C104        C  0.37204788  0.94344349  0.50060350     0.98100
C105        C  0.37081789  0.95390719  0.13497953     0.94500
Al106      Al  0.37708352  0.87560344  0.10101369     1.55600
O107        O  0.33725830  0.98282546  0.04384218    -0.77200
C108        C  0.36881932  0.82430171  0.03917788     0.98700
C109        C  0.43545892  0.91426631  0.09670319     0.93600
O110        O  0.41999347  0.94683240  0.09050939    -0.82500
O111        O  0.11815927  0.95067912  0.22770036    -0.82000
C112        C  0.19384920  0.85313157  0.15525397     0.97400
O113        O  0.19509784  0.85155006  0.18711153    -0.71100
O114        O  0.20522157  0.92575617  0.20466764    -0.74700
Al115      Al  0.17539292  0.88876231  0.21584598     1.49000
C116        C  0.20219209  0.96190033  0.21211312     0.92600
O117        O  0.14589867  0.97078275  0.14505660    -0.80900
O118        O  0.08562416  0.88439423  0.15885146    -0.74500
Al119      Al  0.13234795  0.95841710  0.18571204     1.90100
O120        O  0.12380899  0.91949949  0.11579128    -0.73600
O121        O  0.12877607  0.82748665  0.17838131    -0.73400
O122        O  0.16851256  0.86596574  0.13722706    -0.79100
O123        O  0.14780709  0.85034806  0.22914445    -0.77300
O124        O  0.14494020  0.90768545  0.18390495    -1.13400
O125        O  0.16357195  0.92300723  0.25209486    -0.72600
C126        C  0.13914097  0.94551076  0.25377439     0.98100
C127        C  0.13540542  0.95497799  0.11701269     0.94500
Al128      Al  0.12798118  0.87643551  0.15014967     1.55600
O129        O  0.17429384  0.97826649  0.20782085    -0.77200
C130        C  0.13319629  0.82367136  0.21052710     0.98700
C131        C  0.07140386  0.91791871  0.15646507     0.93600
O132        O  0.08769493  0.94977288  0.16351674    -0.82500
O133        O  0.08833422  0.06127147  0.41154373    -0.82000
C134        C  0.19904600  0.15115719  0.41207894     0.97400
O135        O  0.17403041  0.14088050  0.39221818    -0.71100
O136        O  0.12809677  0.09051721  0.36639072    -0.74700
Al137      Al  0.13216683  0.13225212  0.40236395     1.49000
C138        C  0.13820629  0.05413825  0.36739384     0.92600
O139        O  0.17038178  0.02425772  0.45809548    -0.80900
O140        O  0.16251024  0.08050718  0.00046523    -0.74500
Al141      Al  0.13094444  0.04858846  0.43511025     1.90100
O142        O  0.20473603  0.07391170  0.45798584    -0.73600
O143        O  0.15070496  0.15384222  0.48281385    -0.73400
O144        O  0.19922015  0.14980678  0.44363520    -0.79100
O145        O  0.13408820  0.18009768  0.43259067    -0.77300
O146        O  0.14613998  0.09839247  0.43558124    -1.13400
O147        O  0.08834658  0.12677751  0.40790255    -0.72600
C148        C  0.07324811  0.09396731  0.40449059     0.98100
C149        C  0.19906866  0.03751935  0.46249676     0.94500
Al150      Al  0.17639529  0.11331574  0.46922814     1.55600
O151        O  0.14606093  0.03661188  0.39526086    -0.77200
C152        C  0.13909558  0.18302367  0.46490041     0.98700
C153        C  0.13711379  0.05983317  0.00126494     0.93600
O154        O  0.11499486  0.05583767  0.47616909    -0.82500
O155        O  0.42091179  0.05891217  0.34134340    -0.82000
C156        C  0.31158298  0.14958829  0.34730969     0.97400
O157        O  0.33785428  0.13975810  0.36530009    -0.71100
O158        O  0.38438891  0.08899147  0.38872589    -0.74700
Al159      Al  0.37818634  0.13042094  0.35196822     1.49000
C160        C  0.37378576  0.05289421  0.38816227     0.92600
O161        O  0.33709675  0.02171583  0.29969249    -0.80900
O162        O  0.34355600  0.07572825  0.25332146    -0.74500
Al163      Al  0.37740533  0.04644416  0.32005427     1.90100
O164        O  0.30290617  0.07104543  0.30204539    -0.73600
O165        O  0.35377849  0.15065303  0.27202219    -0.73400
O166        O  0.30875947  0.14714978  0.31543925    -0.79100
O167        O  0.37418385  0.17765846  0.32076191    -0.77300
O168        O  0.36216626  0.09616056  0.31997039    -1.13400
O169        O  0.42090232  0.12445491  0.34312087    -0.72600
C170        C  0.43609298  0.09161269  0.34688499     0.98100
C171        C  0.30823896  0.03470080  0.29684911     0.94500
Al172      Al  0.32988594  0.11032033  0.28812950     1.55600
O173        O  0.36451022  0.03584960  0.36050735    -0.77200
C174        C  0.36643141  0.18017880  0.28853755     0.98700
C175        C  0.36950058  0.05586434  0.25194893     0.93600
O176        O  0.39092772  0.05310273  0.27785117    -0.82500
C177        C  0.22558075  0.16995212  0.36281249    -0.12500
C178        C  0.22861196  0.16191875  0.39769232     0.04500
C179        C  0.26006830  0.15840900  0.41662669    -0.07800
C180        C  0.28703354  0.15694428  0.39984932    -0.08500
C181        C  0.28364685  0.16083067  0.36440842    -0.03100
C182        C  0.25276410  0.17053258  0.34631394     0.03800
N183        N  0.24857396  0.18142028  0.31137449     0.66300
H184        H  0.20180439  0.17477551  0.34797059     0.15200
H185        H  0.31066045  0.15126723  0.41472542     0.14900
N186        N  0.26508998  0.15504550  0.45268449     0.74000
O187        O  0.23515484  0.15733435  0.28922500    -0.39500
O188        O  0.25254989  0.21751916  0.30336829    -0.39400
O189        O  0.27465422  0.12223656  0.46670285    -0.40100
O190        O  0.26592045  0.18648971  0.47033633    -0.40200
C191        C  0.02158299  0.05627430  0.38818652    -0.12500
C192        C  0.03813744  0.09315314  0.39023009     0.04500
C193        C  0.02134318  0.12769615  0.37612422    -0.07800
C194        C  0.48814048  0.12843762  0.36179267    -0.08500
C195        C  0.47137989  0.09179816  0.36011329    -0.03100
C196        C  0.48808750  0.05706615  0.37392686     0.03800
N197        N  0.47195565  0.01940545  0.37503409     0.66300
H198        H  0.03396028  0.02918868  0.39834281     0.15200
H199        H  0.47577217  0.15565436  0.35191045     0.14900
N200        N  0.03678787  0.16598305  0.37654159     0.74000
O201        O  0.47567473  0.99244246  0.35388320    -0.39500
O202        O  0.45889787  0.01070721  0.40040430    -0.39400
O203        O  0.04575793  0.17916208  0.34999290    -0.40100
O204        O  0.03629606  0.18925339  0.40128145    -0.40200
C205        C  0.22379880  0.00811505  0.25772012    -0.12500
C206        C  0.23006294  0.98158989  0.23239246     0.04500
C207        C  0.26217867  0.96801767  0.23224252    -0.07800
C208        C  0.28736301  0.98301720  0.25584120    -0.08500
C209        C  0.28112231  0.01040689  0.28046082    -0.03100
C210        C  0.24885342  0.02150052  0.28236398     0.03800
N211        N  0.24112659  0.04504363  0.30987442     0.66300
H212        H  0.19907564  0.01647064  0.25978992     0.15200
H213        H  0.31206173  0.97434847  0.25393255     0.14900
N214        N  0.26967839  0.93834892  0.20892967     0.74000
O215        O  0.22365587  0.07603086  0.30401024    -0.39500
O216        O  0.24623872  0.03064286  0.33939972    -0.39400
O217        O  0.28246708  0.94905166  0.18390476    -0.40100
O218        O  0.27188279  0.90210516  0.21825232    -0.40200
C219        C  0.11664332  0.00494090  0.28075265    -0.12500
C220        C  0.13778099  0.97141742  0.28400020     0.04500
C221        C  0.16009934  0.96722915  0.31424027    -0.07800
C222        C  0.16095177  0.99596395  0.33990761    -0.08500
C223        C  0.13967932  0.02926102  0.33675374    -0.03100
C224        C  0.11743596  0.03359449  0.30663258     0.03800
N225        N  0.09462071  0.06596484  0.30237535     0.66300
H226        H  0.09956994  0.00947988  0.25767795     0.15200
H227        H  0.17803834  0.99153361  0.36301458     0.14900
N228        N  0.18154050  0.93346962  0.31984816     0.74000
O229        O  0.10130503  0.09780726  0.28787250    -0.39500
O230        O  0.06610221  0.06034966  0.30802807    -0.39400
O231        O  0.21128490  0.93790322  0.31839395    -0.40100
O232        O  0.17217652  0.90186820  0.33272596    -0.40200
C233        C  0.11704197  0.99853198  0.02753571    -0.12500
C234        C  0.13421943  0.03510282  0.03157590     0.04500
C235        C  0.15198346  0.04424746  0.06354886    -0.07800
C236        C  0.15273137  0.01707639  0.09027987    -0.08500
C237        C  0.13570031  0.98040950  0.08640702    -0.03100
C238        C  0.11761000  0.97134352  0.05452414     0.03800
N239        N  0.09931992  0.93508164  0.04919625     0.66300
H240        H  0.10367645  0.99044331  0.00303677     0.15200
H241        H  0.16662957  0.02525162  0.11450078     0.14900
N242        N  0.16875064  0.08154744  0.06964962     0.74000
O243        O  0.07102954  0.93355390  0.05643292    -0.39500
O244        O  0.11224111  0.90377351  0.03953375    -0.39400
O245        O  0.15485385  0.11075723  0.08146016    -0.40100
O246        O  0.19886829  0.08302806  0.06919217    -0.40200
C247        C  0.28311602  0.00023212  0.48990086    -0.12500
C248        C  0.28184053  0.99212974  0.02106270     0.04500
C249        C  0.25151356  0.99324488  0.03201338    -0.07800
C250        C  0.22440432  0.00618675  0.00988940    -0.08500
C251        C  0.22553926  0.01345797  0.47968908    -0.03100
C252        C  0.25544847  0.01267952  0.46805638     0.03800
N253        N  0.25729905  0.02180690  0.43351435     0.66300
H254        H  0.30600404  0.99818422  0.48048900     0.15200
H255        H  0.20138305  0.00878872  0.01896861     0.14900
N256        N  0.24797694  0.98223988  0.06570371     0.74000
O257        O  0.27162805  0.05301724  0.42596836    -0.39500
O258        O  0.24336836  0.99933743  0.41033170    -0.39400
O259        O  0.24111110  0.00912929  0.08557505    -0.40100
O260        O  0.24311151  0.94593380  0.07236593    -0.40200
C261        C  0.38997262  0.00760266  0.47722034    -0.12500
C262        C  0.37487734  0.96974726  0.47136200     0.04500
C263        C  0.35871043  0.96090106  0.43875693    -0.07800
C264        C  0.35790163  0.98925277  0.41307231    -0.08500
C265        C  0.37307859  0.02712709  0.41851081    -0.03100
C266        C  0.38895647  0.03631728  0.45124791     0.03800
N267        N  0.40339862  0.07471604  0.45880614     0.66300
H268        H  0.40161872  0.01564731  0.50244510     0.15200
H269        H  0.34520409  0.98092177  0.38833210     0.14900
N270        N  0.34344507  0.92296320  0.43084830     0.74000
O271        O  0.43355937  0.07895674  0.45988538    -0.39500
O272        O  0.38721215  0.10213729  0.47014677    -0.39400
O273        O  0.31374393  0.91912715  0.43278554    -0.40100
O274        O  0.35656486  0.89822186  0.41335484    -0.40200
C275        C  0.34965955  0.03734096  0.19230648    -0.12500
C276        C  0.37229996  0.03116993  0.22162132     0.04500
C277        C  0.39387662  0.99790198  0.22271535    -0.07800
C278        C  0.39203377  0.97174866  0.19499851    -0.08500
C279        C  0.36939732  0.97823090  0.16571206    -0.03100
C280        C  0.34809707  0.01163472  0.16461647     0.03800
N281        N  0.32393274  0.01942027  0.13581629     0.66300
H282        H  0.33249370  0.06201605  0.19093654     0.15200
H283        H  0.40903033  0.94692417  0.19608157     0.14900
N284        N  0.41749715  0.98966475  0.25187950     0.74000
O285        O  0.29580053  0.00549995  0.13507019    -0.39500
O286        O  0.32855857  0.04665082  0.11519000    -0.39400
O287        O  0.41231948  0.96222797  0.27208781    -0.40100
O288        O  0.44557277  0.00433399  0.25397498    -0.40200
C289        C  0.25340039  0.83844994  0.15900078    -0.12500
C290        C  0.22285597  0.84349121  0.13890416     0.04500
C291        C  0.22151034  0.84533317  0.10331565    -0.07800
C292        C  0.25016887  0.84690796  0.08923425    -0.08500
C293        C  0.28078073  0.84635047  0.10965396    -0.03100
C294        C  0.28215326  0.84009185  0.14490160     0.03800
N295        N  0.31248848  0.83635360  0.16701541     0.66300
H296        H  0.25517773  0.83535275  0.18613099     0.15200
H297        H  0.24826578  0.85062317  0.06211818     0.14900
N298        N  0.19124039  0.84698214  0.08092660     0.74000
O299        O  0.32590826  0.86723199  0.18108370    -0.39500
O300        O  0.32227700  0.80204830  0.17762924    -0.39400
O301        O  0.18182723  0.87972067  0.06666765    -0.40100
O302        O  0.17740837  0.81470816  0.07044731    -0.40200
C303        C  0.48466415  0.95125092  0.12389662    -0.12500
C304        C  0.47073411  0.91529109  0.11002977     0.04500
C305        C  0.49030579  0.88052170  0.11165199    -0.07800
C306        C  0.01982316  0.88192761  0.13645660    -0.08500
C307        C  0.03598404  0.91880419  0.14278167    -0.03100
C308        C  0.01859350  0.95451956  0.13288996     0.03800
N309        N  0.03361495  0.99297598  0.13811192     0.66300
H310        H  0.47005662  0.97828623  0.12330408     0.15200
H311        H  0.03241221  0.85391750  0.14353219     0.14900
N312        N  0.47815054  0.84356407  0.09661082     0.74000
O313        O  0.04726744  0.00823703  0.11522767    -0.39500
O314        O  0.02826928  0.01441969  0.16257786    -0.39400
O315        O  0.48140179  0.83599658  0.06649322    -0.40100
O316        O  0.47032420  0.81571857  0.11508929    -0.40200
C317        C  0.13310400  0.29335836  0.48987253    -0.12500
C318        C  0.12250818  0.29006595  0.02079006     0.04500
C319        C  0.12662749  0.25192150  0.03607322    -0.07800
C320        C  0.12789282  0.21747051  0.51729043    -0.08500
C321        C  0.13320363  0.22061221  0.48341873    -0.03100
C322        C  0.13638841  0.25924651  0.47002372     0.03800
N323        N  0.14478961  0.26443449  0.43710518     0.66300
H324        H  0.13523987  0.32272876  0.47874823     0.14400
H325        H  0.12584244  0.18811997  0.52848141     0.14900
N326        N  0.12595303  0.24677107  0.07134388     0.74000
O327        O  0.12407421  0.27829712  0.41346848    -0.39500
O328        O  0.17412544  0.26183134  0.43321388    -0.39400
O329        O  0.09943425  0.23917741  0.08129411    -0.40100
O330        O  0.15223395  0.24277097  0.09156052    -0.40200
C331        C  0.38589970  0.28727478  0.26254878    -0.12500
C332        C  0.37299969  0.28772062  0.22761673     0.04500
C333        C  0.35793724  0.25256347  0.21343962    -0.07800
C334        C  0.35667212  0.21829570  0.23371476    -0.08500
C335        C  0.36995011  0.21768656  0.26857282    -0.03100
C336        C  0.38452389  0.25304885  0.28284310     0.03800
N337        N  0.39841152  0.25483226  0.31776730     0.66300
H338        H  0.39778061  0.31365258  0.27446277     0.15200
H339        H  0.34470367  0.19196364  0.22181130     0.14900
N340        N  0.34321841  0.25112379  0.17873177     0.74000
O341        O  0.42785949  0.24555488  0.32675347    -0.39500
O342        O  0.38332099  0.27266137  0.33830310    -0.39400
O343        O  0.35761956  0.23331743  0.15761332    -0.40100
O344        O  0.31354163  0.25979397  0.17075832    -0.40200
C345        C  0.22429025  0.39239565  0.13631142    -0.12500
C346        C  0.21217939  0.42037116  0.11114497     0.04500
C347        C  0.23325851  0.44929278  0.10111816    -0.07800
C348        C  0.26596386  0.44941167  0.11591605    -0.08500
C349        C  0.27815431  0.42074011  0.14043095    -0.03100
C350        C  0.25692549  0.39242684  0.15101352     0.03800
N351        N  0.26803160  0.36395236  0.17704402     0.66300
H352        H  0.20821739  0.37058442  0.14497317     0.15200
H353        H  0.28225516  0.47056707  0.10676307     0.14900
N354        N  0.22279018  0.47570295  0.07346274     0.74000
O355        O  0.27127987  0.37461997  0.20759675    -0.39500
O356        O  0.26875132  0.32710828  0.16990806    -0.39400
O357        O  0.21679348  0.51198566  0.07919273    -0.40100
O358        O  0.22764435  0.46557001  0.04437158    -0.40200
C359        C  0.49254379  0.34900614  0.08329995    -0.12500
C360        C  0.02515619  0.34390503  0.10878907     0.04500
C361        C  0.02587209  0.34023156  0.14415220    -0.07800
C362        C  0.99686149  0.33997125  0.15760610    -0.08500
C363        C  0.46344389  0.34257758  0.13144817    -0.03100
C364        C  0.46329500  0.34872556  0.09631648     0.03800
N365        N  0.43393157  0.35670195  0.07354191     0.66300
H366        H  0.49188023  0.35645487  0.05685593     0.15200
H367        H  0.99822168  0.33905362  0.18480923     0.14900
N368        N  0.05585251  0.33822556  0.16702434     0.74000
O369        O  0.42671317  0.39235334  0.06454894    -0.39500
O370        O  0.41922092  0.32809954  0.05716487    -0.39400
O371        O  0.06662231  0.36921849  0.18307350    -0.40100
O372        O  0.06813722  0.30440316  0.17579515    -0.40200
C373        C  0.35623474  0.75250671  0.02643007    -0.12500
C374        C  0.37390626  0.78682996  0.02075449     0.04500
C375        C  0.38854755  0.78495082  0.49171135    -0.07800
C376        C  0.38620901  0.75161048  0.47001041    -0.08500
C377        C  0.37271571  0.71547255  0.47888011    -0.03100
C378        C  0.35408111  0.71973730  0.00409113     0.03800
N379        N  0.33486752  0.68595466  0.01034624     0.66300
H380        H  0.34287460  0.75178903  0.04748774     0.15200
H381        H  0.39638298  0.75345745  0.44681489     0.14900
N382        N  0.40407415  0.82040371  0.48224812     0.74000
O383        O  0.34701491  0.65903071  0.03076033    -0.39500
O384        O  0.31694587  0.67279113  0.51412245    -0.39400
O385        O  0.43837002  0.82211463  0.99584975    -0.40100
O386        O  0.38924713  0.84312702  0.45968000    -0.40200
C387        C  0.40856289  0.48481232  0.29514101    -0.12500
C388        C  0.38020598  0.47798367  0.27184546     0.04500
C389        C  0.35203830  0.50074880  0.27507087    -0.07800
C390        C  0.35281078  0.52928433  0.30103034    -0.08500
C391        C  0.38102594  0.53539599  0.32449298    -0.03100
C392        C  0.40912383  0.51281391  0.32131557     0.03800
N393        N  0.43845508  0.51771744  0.34483510     0.66300
H394        H  0.43071014  0.46871307  0.29286543     0.15200
H395        H  0.33068435  0.54503287  0.30402357     0.14900
N396        N  0.32197316  0.49405099  0.25322374     0.74000
O397        O  0.44590471  0.49234129  0.36823696    -0.39500
O398        O  0.45957754  0.54225396  0.33831989    -0.39400
O399        O  0.30186202  0.46957190  0.26202217    -0.40100
O400        O  0.31291677  0.51805633  0.22913621    -0.40200
C401        C  0.40168030  0.52220148  0.04408544    -0.12500
C402        C  0.37236138  0.53022385  0.02257305     0.04500
C403        C  0.34478258  0.50700343  0.02624474    -0.07800
C404        C  0.34696279  0.47710066  0.05142310    -0.08500
C405        C  0.37619901  0.47011992  0.07335736    -0.03100
C406        C  0.40383279  0.49284042  0.06918872     0.03800
N407        N  0.43431504  0.48711318  0.09080561     0.66300
H408        H  0.42353666  0.53845548  0.04124871     0.15200
H409        H  0.32526616  0.46106225  0.05516880     0.14900
N410        N  0.31405160  0.51476051  0.00587908     0.74000
O411        O  0.45658892  0.46799033  0.07982853    -0.39500
O412        O  0.44162597  0.50960862  0.11618442    -0.39400
O413        O  0.30630743  0.48600532  0.48132126    -0.40100
O414        O  0.29933171  0.53701985  0.51347205    -0.40200
C415        C  0.49639163  0.53987634  0.48397687    -0.12500
C416        C  0.46890979  0.51688865  0.47163257     0.04500
C417        C  0.46457829  0.47926216  0.98507599    -0.07800
C418        C  0.99073659  0.46455361  0.01453441    -0.08500
C419        C  0.01861172  0.48754345  0.02616946    -0.03100
C420        C  0.01739201  0.52600082  0.51625327     0.03800
N421        N  0.04261291  0.55202216  0.53175922     0.66300
H422        H  0.49847483  0.57109656  0.47545648     0.15200
H423        H  0.98927867  0.43330562  0.02175634     0.14900
N424        N  0.43900161  0.45391226  0.96935989     0.74000
O425        O  0.03757599  0.57417735  0.55590827    -0.39500
O426        O  0.06585375  0.56007535  0.51627546    -0.39400
O427        O  0.44341633  0.43227071  0.94467320    -0.40100
O428        O  0.41513973  0.44703309  0.98424121    -0.40200
C429        C  0.11282565  0.75517102  0.27974699    -0.12500
C430        C  0.11814983  0.71713406  0.26684540     0.04500
C431        C  0.12561584  0.71421532  0.23363060    -0.07800
C432        C  0.12840668  0.74907454  0.21450061    -0.08500
C433        C  0.12360470  0.78713557  0.22771329    -0.03100
C434        C  0.11484450  0.78986213  0.26036166     0.03800
N435        N  0.10648801  0.82766907  0.27358280     0.66300
H436        H  0.10555482  0.75790866  0.30442635     0.15200
H437        H  0.13571397  0.74641282  0.18983974     0.14900
N438        N  0.13168007  0.67610509  0.21944108     0.74000
O439        O  0.07904455  0.84302074  0.26305681    -0.39500
O440        O  0.12375018  0.84187482  0.29957678    -0.39400
O441        O  0.11124339  0.66165908  0.19594676    -0.40100
O442        O  0.15948278  0.66034338  0.22634399    -0.40200
C443        C  0.13810514  0.53350771  0.44311600    -0.12500
C444        C  0.10860188  0.54078080  0.42188836     0.04500
C445        C  0.08102164  0.51834454  0.42638899    -0.07800
C446        C  0.08358163  0.48807956  0.45077031    -0.08500
C447        C  0.11329990  0.47951179  0.47135441    -0.03100
C448        C  0.14072077  0.50308991  0.46770782     0.03800
N449        N  0.17170291  0.49536079  0.48761827     0.66300
H450        H  0.15970433  0.54957087  0.43907332     0.15200
H451        H  0.06183622  0.47184003  0.45404100     0.14900
N452        N  0.05022589  0.52561818  0.40587424     0.74000
O453        O  0.18980718  0.46851450  0.47841715    -0.39500
O454        O  0.18324889  0.51987924  0.51034568    -0.39400
O455        O  0.03990196  0.50168655  0.38222678    -0.40100
O456        O  0.03088119  0.55051125  0.41566178    -0.40200
C457        C  0.08985298  0.53754988  0.19350757    -0.12500
C458        C  0.10893086  0.52779390  0.22437692     0.04500
C459        C  0.12668752  0.49114362  0.22699619    -0.07800
C460        C  0.12638524  0.46658986  0.19850971    -0.08500
C461        C  0.10798948  0.47711823  0.16739964    -0.03100
C462        C  0.08879629  0.51262432  0.16544082     0.03800
N463        N  0.06789067  0.52409766  0.13509596     0.66300
H464        H  0.07518088  0.56464289  0.19107990     0.15200
H465        H  0.14086588  0.43935492  0.20074629     0.14900
N466        N  0.14405673  0.47733111  0.25856060     0.74000
O467        O  0.03892370  0.51195624  0.12992285    -0.39500
O468        O  0.07612034  0.55260236  0.11754342    -0.39400
O469        O  0.12933942  0.45696800  0.27790975    -0.40100
O470        O  0.17464297  0.47677694  0.26304164    -0.40200
C471        C  0.22334205  0.62004982  0.38057039    -0.12500
C472        C  0.20948043  0.58862109  0.35978811     0.04500
C473        C  0.22964850  0.55667284  0.35270914    -0.07800
C474        C  0.26294388  0.55704287  0.36595911    -0.08500
C475        C  0.27680073  0.58883084  0.38637990    -0.03100
C476        C  0.25645384  0.62034494  0.39391791     0.03800
N477        N  0.26875227  0.65220188  0.41613884     0.66300
H478        H  0.20822456  0.64444364  0.38704497     0.15200
H479        H  0.27821023  0.53289277  0.35933179     0.14900
N480        N  0.21731261  0.52515457  0.33021367     0.74000
O481        O  0.27522814  0.68565488  0.40401729    -0.39500
O482        O  0.26721489  0.64939671  0.44724208    -0.39400
O483        O  0.22295453  0.52584753  0.30021988    -0.40100
O484        O  0.20787053  0.49294943  0.34206771    -0.40200
C485        C  0.02544193  0.66142331  0.39506238    -0.12500
C486        C  0.02305036  0.66885085  0.36019077     0.04500
C487        C  0.99231806  0.67947369  0.34198349    -0.07800
C488        C  0.46371117  0.67263798  0.35425470    -0.08500
C489        C  0.46657543  0.66530114  0.38926105    -0.03100
C490        C  0.49811530  0.66420270  0.40847134     0.03800
N491        N  0.50325239  0.66185270  0.44458699     0.66300
H492        H  0.04880667  0.65478531  0.41012688     0.15200
H493        H  0.43984937  0.67597597  0.33924319     0.14900
N494        N  0.98921453  0.69607123  0.30859476     0.74000
O495        O  0.01772251  0.61943957  0.45706316    -0.39500
O496        O  0.49665893  0.69203357  0.46128554    -0.39400
O497        O  0.46366284  0.67307232  0.28251848    -0.40100
O498        O  0.00606061  0.72622167  0.30351239    -0.40200
C499        C  0.46818814  0.52404903  0.22429675    -0.12500
C500        C  0.47321671  0.48484107  0.21397621     0.04500
C501        C  0.50287411  0.46515398  0.22645801    -0.07800
C502        C  0.02329093  0.48881919  0.25559752    -0.08500
C503        C  0.01572608  0.52159904  0.27484695    -0.03100
C504        C  0.98405056  0.53813392  0.26830013     0.03800
N505        N  0.97534069  0.57310508  0.28545435     0.66300
H506        H  0.44583453  0.53986709  0.21479831     0.15200
H507        H  0.04772427  0.47666292  0.25908423     0.14900
N508        N  0.51013083  0.42565729  0.21570594     0.74000
O509        O  0.49088539  0.61172090  0.24033054    -0.39500
O510        O  0.96153929  0.56929798  0.31105133    -0.39400
O511        O  0.52671914  0.42155625  0.19224870    -0.40100
O512        O  0.01292236  0.40578721  0.22249778    -0.40200
O513        O  0.15660423  0.56048355  0.84442891    -0.82000
C514        C  0.05044838  0.65846886  0.84414816     0.97400
O515        O  0.07581456  0.64776000  0.86346433    -0.71100
O516        O  0.12108160  0.59669574  0.88913540    -0.74700
Al517      Al  0.11657601  0.63572204  0.85187304     1.49000
C518        C  0.10815178  0.56229231  0.89038143     0.92600
O519        O  0.07106440  0.52844458  0.80163656    -0.80900
O520        O  0.08323568  0.57999781  0.75362700    -0.74500
Al521      Al  0.11225819  0.55011608  0.82286977     1.90100
O522        O  0.03938962  0.58117702  0.79907262    -0.73600
O523        O  0.09791306  0.65444552  0.77147826    -0.73400
O524        O  0.04949811  0.65677684  0.81236874    -0.79100
O525        O  0.11541883  0.68168731  0.82094094    -0.77300
O526        O  0.09989796  0.60118042  0.82030372    -1.13400
O527        O  0.15907209  0.62629442  0.84389635    -0.72600
C528        C  0.17303957  0.59262039  0.84800553     0.98100
C529        C  0.04310732  0.54420519  0.79510969     0.94500
Al530      Al  0.06997708  0.61715039  0.78664931     1.55600
O531        O  0.09746524  0.54350845  0.86384727    -0.77200
C532        C  0.11139749  0.68294386  0.78877799     0.98700
C533        C  0.10762630  0.55680911  0.75410803     0.93600
O534        O  0.12736321  0.55180669  0.78108814    -0.82500
O535        O  0.32695234  0.56103497  0.90196613    -0.82000
C536        C  0.43629168  0.65367185  0.90388641     0.97400
O537        O  0.41146255  0.64339686  0.88366831    -0.71100
O538        O  0.36580231  0.59288847  0.85760162    -0.74700
Al539      Al  0.36945098  0.63379000  0.89392741     1.49000
C540        C  0.37757082  0.55737622  0.85795236     0.92600
O541        O  0.41027819  0.52590833  0.94922462    -0.80900
O542        O  0.40216377  0.57422612  0.49212985    -0.74500
Al543      Al  0.37002632  0.54909387  0.92555049     1.90100
O544        O  0.44238996  0.57742296  0.94954449    -0.73600
O545        O  0.38608714  0.65424601  0.97441442    -0.73400
O546        O  0.43571693  0.65285530  0.93541343    -0.79100
O547        O  0.37084072  0.68136926  0.92430464    -0.77300
O548        O  0.38382448  0.59964739  0.92681703    -1.13400
O549        O  0.32589019  0.62691599  0.90005735    -0.72600
C550        C  0.31125351  0.59372535  0.89703062     0.98100
C551        C  0.43823013  0.54130738  0.95643668     0.94500
Al552      Al  0.41316781  0.61526722  0.96078152     1.55600
O553        O  0.38579048  0.53915340  0.88547678    -0.77200
C554        C  0.37472806  0.68351104  0.95659100     0.98700
C555        C  0.37728275  0.55229300  0.49201963     0.93600
O556        O  0.35345128  0.55415917  0.96673596    -0.82500
O557        O  0.36089988  0.45902002  0.71403098    -0.82000
C558        C  0.43698174  0.35140024  0.65086077     0.97400
O559        O  0.43841293  0.35324122  0.68271928    -0.71100
O560        O  0.44772955  0.42851699  0.69383924    -0.74700
Al561      Al  0.41830951  0.39336855  0.70830690     1.49000
C562        C  0.44455312  0.46538876  0.69788359     0.92600
O563        O  0.38966275  0.46448465  0.63050197    -0.80900
O564        O  0.32854919  0.38307002  0.65340214    -0.74500
Al565      Al  0.37545446  0.45937051  0.67173814     1.90100
O566        O  0.36540931  0.41100475  0.60637732    -0.73600
O567        O  0.37299485  0.32767140  0.67673692    -0.73400
O568        O  0.41106732  0.36088902  0.63201767    -0.79100
O569        O  0.39161035  0.35627694  0.72516458    -0.77300
O570        O  0.38771976  0.40829338  0.67510741    -1.13400
O571        O  0.40552043  0.43174542  0.74110529    -0.72600
C572        C  0.38115683  0.45508800  0.74082408     0.98100
C573        C  0.37863106  0.44514197  0.60437377     0.94500
Al574      Al  0.37067253  0.37295636  0.64454501     1.55600
O575        O  0.41666876  0.48135686  0.69181584    -0.77200
C576        C  0.37913650  0.32640168  0.70898065     0.98700
C577        C  0.31486220  0.41673763  0.64750460     0.93600
O578        O  0.33143913  0.44870522  0.65069028    -0.82500
O579        O  0.13308208  0.45652873  0.52665510    -0.82000
C580        C  0.05672194  0.35495712  0.59345043     0.97400
O581        O  0.05731745  0.35345858  0.56191243    -0.71100
O582        O  0.04549666  0.42738382  0.54511838    -0.74700
Al583      Al  0.07697979  0.39226257  0.53490915     1.49000
C584        C  0.04756611  0.46418075  0.53934413     0.92600
O585        O  0.10135700  0.47357175  0.60716957    -0.80900
O586        O  0.16395533  0.38930031  0.59461213    -0.74500
Al587      Al  0.11681860  0.46272086  0.56747818     1.90100
O588        O  0.12404639  0.42277875  0.63681470    -0.73600
O589        O  0.12249184  0.33105240  0.57338877    -0.73400
O590        O  0.08073970  0.36857410  0.61296617    -0.79100
O591        O  0.10650244  0.35554703  0.52249865    -0.77300
O592        O  0.10544782  0.41154198  0.56818317    -1.13400
O593        O  0.08659643  0.42927642  0.00148279    -0.72600
C594        C  0.11118640  0.45150841  0.00060369     0.98100
C595        C  0.11146667  0.45794125  0.63531307     0.94500
Al596      Al  0.12172069  0.38002130  0.60201403     1.55600
O597        O  0.07492475  0.48153256  0.54448583    -0.77200
C598        C  0.11908492  0.32750510  0.54117522     0.98700
C599        C  0.17757944  0.42308024  0.59626449     0.93600
O600        O  0.16087910  0.45490817  0.59057264    -0.82500
O601        O  0.39250543  0.94695306  0.52718696    -0.82000
C602        C  0.31014210  0.85263254  0.59442757     0.97400
O603        O  0.30960560  0.85293613  0.56268827    -0.71100
O604        O  0.30311438  0.92825150  0.54651943    -0.74700
Al605      Al  0.33186658  0.88922934  0.53574134     1.49000
C606        C  0.30796759  0.96451633  0.54071691     0.92600
O607        O  0.36186728  0.96805481  0.60756107    -0.80900
O608        O  0.42058887  0.87856310  0.59643500    -0.74500
Al609      Al  0.37675157  0.95535913  0.56803452     1.90100
O610        O  0.38061198  0.91526707  0.63748730    -0.73600
O611        O  0.37538580  0.82398606  0.57319464    -0.73400
O612        O  0.33532260  0.86370775  0.61354767    -0.79100
O613        O  0.35814961  0.84909536  0.52262237    -0.77300
O614        O  0.36218418  0.90541354  0.56879520    -1.13400
O615        O  0.34602847  0.92645391  0.00042084    -0.72600
C616        C  0.37208776  0.94593057  0.99971941     0.98100
C617        C  0.36981051  0.95134679  0.63569508     0.94500
Al618      Al  0.37690248  0.87259919  0.60254006     1.55600
O619        O  0.33648509  0.97856084  0.54468760    -0.77200
C620        C  0.37063745  0.82071574  0.54092178     0.98700
C621        C  0.43535975  0.91162865  0.59933165     0.93600
O622        O  0.41990335  0.94399834  0.59168665    -0.82500
O623        O  0.11690261  0.94859969  0.72750463    -0.82000
C624        C  0.19366661  0.85254757  0.65500278     0.97400
O625        O  0.19514355  0.85158965  0.68690614    -0.71100
O626        O  0.20427142  0.92640851  0.70386105    -0.74700
Al627      Al  0.17516341  0.88860638  0.71553863     1.49000
C628        C  0.20050945  0.96267854  0.71064345     0.92600
O629        O  0.14376311  0.96919043  0.64498769    -0.80900
O630        O  0.08497966  0.88161191  0.65890918    -0.74500
Al631      Al  0.13070201  0.95675906  0.68547390     1.90100
O632        O  0.12249023  0.91753204  0.61562815    -0.73600
O633        O  0.12940259  0.82596283  0.67873542    -0.73400
O634        O  0.16819219  0.86500790  0.63696163    -0.79100
O635        O  0.14833123  0.84966607  0.72934318    -0.77300
O636        O  0.14417228  0.90645893  0.68369900    -1.13400
O637        O  0.16314466  0.92285384  0.75161953    -0.72600
C638        C  0.13835187  0.94470229  0.75331047     0.98100
C639        C  0.13350482  0.95328870  0.61698637     0.94500
Al640      Al  0.12754685  0.87465592  0.65013290     1.55600
O641        O  0.17225895  0.97796083  0.70691674    -0.77200
C642        C  0.13412850  0.82256032  0.71091168     0.98700
C643        C  0.07049965  0.91498093  0.65677400     0.93600
O644        O  0.08641398  0.94704349  0.66372609    -0.82500
O645        O  0.08814494  0.06198108  0.91048345    -0.82000
C646        C  0.19784125  0.15364791  0.90888938     0.97400
O647        O  0.17294505  0.14277165  0.88911675    -0.71100
O648        O  0.12702324  0.09207034  0.86384282    -0.74700
Al649      Al  0.13129354  0.13350497  0.89993088     1.49000
C650        C  0.13747406  0.05590208  0.86476040     0.92600
O651        O  0.17180163  0.02627892  0.95466853    -0.80900
O652        O  0.16099856  0.07949039  0.50291505    -0.74500
Al653      Al  0.13146207  0.04969299  0.93287576     1.90100
O654        O  0.20522722  0.07691911  0.95423988    -0.73600
O655        O  0.14994693  0.15469549  0.98026482    -0.73400
O656        O  0.19788878  0.15286443  0.94043438    -0.79100
O657        O  0.13285793  0.18102651  0.93018548    -0.77300
O658        O  0.14597949  0.09975392  0.93305284    -1.13400
O659        O  0.08802359  0.12746554  0.90634667    -0.72600
C660        C  0.07293101  0.09470886  0.90374071     0.98100
C661        C  0.20027081  0.04035328  0.95880211     0.94500
Al662      Al  0.17636795  0.11526625  0.96628719     1.55600
O663        O  0.14561625  0.03837649  0.89254433    -0.77200
C664        C  0.13753424  0.18363746  0.96248907     0.98700
C665        C  0.13508046  0.05962990  0.50305847     0.93600
O666        O  0.11655762  0.05583549  0.97473361    -0.82500
O667        O  0.41973860  0.05896907  0.84080898    -0.82000
C668        C  0.31128244  0.15161474  0.84558206     0.97400
O669        O  0.33707301  0.14066765  0.86397584    -0.71100
O670        O  0.38351665  0.08951205  0.88737671    -0.74700
Al671      Al  0.37762359  0.13112280  0.85113803     1.49000
C672        C  0.37243900  0.05371169  0.88676385     0.92600
O673        O  0.33534511  0.02374758  0.79779042    -0.80900
O674        O  0.34371893  0.07769041  0.75174304    -0.74500
Al675      Al  0.37598482  0.04734850  0.81891384     1.90100
O676        O  0.30187665  0.07412672  0.79915136    -0.73600
O677        O  0.35543195  0.15222869  0.77148038    -0.73400
O678        O  0.30909646  0.14988494  0.81369367    -0.79100
O679        O  0.37425605  0.17878618  0.82081094    -0.77300
O680        O  0.36152613  0.09737670  0.81875876    -1.13400
O681        O  0.42031504  0.12464747  0.84237519    -0.72600
C682        C  0.43521228  0.09157749  0.84607901     0.98100
C683        C  0.30668911  0.03763358  0.79400611     0.94500
Al684      Al  0.33010997  0.11263268  0.78643861     1.55600
O685        O  0.36228831  0.03706452  0.85912406    -0.77200
C686        C  0.36767036  0.18155950  0.78858696     0.98700
C687        C  0.36918920  0.05666481  0.75093376     0.93600
O688        O  0.39026847  0.05363109  0.77708026    -0.82500
C689        C  0.22490095  0.17237348  0.85980439    -0.12500
C690        C  0.22752855  0.16428442  0.89465536     0.04500
C691        C  0.25882890  0.16076132  0.91394137    -0.07800
C692        C  0.28603637  0.15932826  0.89758348    -0.08500
C693        C  0.28311790  0.16330845  0.86220666    -0.03100
C694        C  0.25242050  0.17323959  0.84374777     0.03800
N695        N  0.24885781  0.18506542  0.80903742     0.66300
H696        H  0.20124631  0.17730392  0.84473921     0.15200
H697        H  0.30949735  0.15351317  0.91275548     0.14900
N698        N  0.26345981  0.15707125  0.94996479     0.74000
O699        O  0.23347769  0.16303477  0.78641906    -0.39500
O700        O  0.25563139  0.22061811  0.80180393    -0.39400
O701        O  0.27142571  0.12365915  0.96378129    -0.40100
O702        O  0.26560460  0.18840060  0.96784598    -0.40200
C703        C  0.02131874  0.05741968  0.88587642    -0.12500
C704        C  0.03762016  0.09436649  0.89048344     0.04500
C705        C  0.02036234  0.12992372  0.87960584    -0.07800
C706        C  0.48829663  0.12664504  0.85521129    -0.08500
C707        C  0.47055106  0.09161515  0.85885432    -0.03100
C708        C  0.48637751  0.05897702  0.87724345     0.03800
N709        N  0.46946338  0.02279234  0.88235237     0.66300
H710        H  0.03398781  0.02968818  0.89375546     0.15200
H711        H  0.47668995  0.15199655  0.84109607     0.14900
N712        N  0.03516850  0.16863337  0.88385179     0.74000
O713        O  0.47118455  0.99324977  0.86303169    -0.39500
O714        O  0.45828270  0.01777519  0.90948767    -0.39400
O715        O  0.04413931  0.18595584  0.85890427    -0.40100
O716        O  0.03429938  0.18807627  0.91069978    -0.40200
C717        C  0.22201718  0.01129234  0.75434425    -0.12500
C718        C  0.22824279  0.98404800  0.72952096     0.04500
C719        C  0.26043110  0.97124594  0.72888579    -0.07800
C720        C  0.28564568  0.98655772  0.75232029    -0.08500
C721        C  0.27939805  0.01405649  0.77691054    -0.03100
C722        C  0.24712513  0.02552026  0.77852284     0.03800
N723        N  0.23938150  0.05031827  0.80529427     0.66300
H724        H  0.19728727  0.01952604  0.75650198     0.15200
H725        H  0.31036088  0.97810009  0.75028597     0.14900
N726        N  0.26792965  0.94227910  0.70498439     0.74000
O727        O  0.22198844  0.08121314  0.79842857    -0.39500
O728        O  0.24434070  0.03716772  0.83523403    -0.39400
O729        O  0.27514540  0.95390989  0.67717025    -0.40100
O730        O  0.27396300  0.90652034  0.71447089    -0.40200
C731        C  0.11561481  0.00477661  0.77913186    -0.12500
C732        C  0.13719572  0.97166671  0.78285187     0.04500
C733        C  0.16027089  0.96902639  0.81261506    -0.07800
C734        C  0.16119094  0.99855245  0.83757392    -0.08500
C735        C  0.13919405  0.03109859  0.83422155    -0.03100
C736        C  0.11649305  0.03428941  0.80433813     0.03800
N737        N  0.09349989  0.06646241  0.79958377     0.66300
H738        H  0.09813150  0.00829067  0.75622306     0.15200
H739        H  0.17882661  0.99521945  0.86042021     0.14900
N740        N  0.18247532  0.93604986  0.81846363     0.74000
O741        O  0.09925553  0.09706593  0.78293609    -0.39500
O742        O  0.06542846  0.06131733  0.80667601    -0.39400
O743        O  0.21189491  0.94114744  0.81581282    -0.40100
O744        O  0.17410821  0.90445354  0.83216463    -0.40200
C745        C  0.11461000  0.99812921  0.52824685    -0.12500
C746        C  0.13130883  0.03499529  0.53296689     0.04500
C747        C  0.14861371  0.04403183  0.56511310    -0.07800
C748        C  0.14974154  0.01626242  0.59131135    -0.08500
C749        C  0.13340016  0.97916793  0.58675543    -0.03100
C750        C  0.11553182  0.97029316  0.55476946     0.03800
N751        N  0.09830132  0.93333043  0.54874328     0.66300
H752        H  0.10168430  0.99016242  0.50351702     0.15200
H753        H  0.16344666  0.02432307  0.61566034     0.14900
N754        N  0.16484547  0.08159828  0.57182526     0.74000
O755        O  0.06963249  0.93053953  0.55472787    -0.39500
O756        O  0.11236803  0.90276756  0.53930727    -0.39400
O757        O  0.14982684  0.11080612  0.58219800    -0.40100
O758        O  0.19529878  0.08316675  0.57397614    -0.40200
C759        C  0.28448796  0.00356137  0.98783287    -0.12500
C760        C  0.28076063  0.98711728  0.52274657     0.04500
C761        C  0.25047209  0.98695959  0.53392880    -0.07800
C762        C  0.22315716  0.00066421  0.51242085    -0.08500
C763        C  0.22700414  0.01738626  0.97681687    -0.03100
C764        C  0.25705096  0.01579000  0.96547061     0.03800
N765        N  0.25924095  0.02310776  0.93071914     0.66300
H766        H  0.30742603  0.00055939  0.97866174     0.15200
H767        H  0.20019628  0.00263955  0.52172178     0.14900
N768        N  0.24717473  0.97388162  0.56720603     0.74000
O769        O  0.26746563  0.05716434  0.92126703    -0.39500
O770        O  0.25078682  0.99614673  0.90902471    -0.39400
O771        O  0.23885387  0.99901997  0.58776384    -0.40100
O772        O  0.24400959  0.93691788  0.57274441    -0.40200
C773        C  0.39251181  0.00744969  0.97486542    -0.12500
C774        C  0.37551090  0.97078459  0.96992968     0.04500
C775        C  0.35736405  0.96263709  0.93806809    -0.07800
C776        C  0.35580685  0.99104374  0.91236718    -0.08500
C777        C  0.37245751  0.02800157  0.91709434    -0.03100
C778        C  0.39091906  0.03611153  0.94889477     0.03800
N779        N  0.40736734  0.07348836  0.95559597     0.66300
H780        H  0.40590145  0.01486804  0.99951778     0.15200
H781        H  0.34143032  0.98355745  0.88821662     0.14900
N782        N  0.34043784  0.92554702  0.93117138     0.74000
O783        O  0.43765566  0.07519398  0.95638066    -0.39500
O784        O  0.39283734  0.10251146  0.96688530    -0.39400
O785        O  0.31020352  0.92450097  0.93098077    -0.40100
O786        O  0.35389450  0.89725357  0.91766373    -0.40200
C787        C  0.35005927  0.03773727  0.69120310    -0.12500
C788        C  0.37162909  0.03083094  0.72114709     0.04500
C789        C  0.39166139  0.99600556  0.72336500    -0.07800
C790        C  0.38955057  0.96925693  0.69602787    -0.08500
C791        C  0.36824638  0.97662845  0.66594230    -0.03100
C792        C  0.34833670  0.01155079  0.66378116     0.03800
N793        N  0.32580517  0.02095948  0.63399461     0.66300
H794        H  0.33407332  0.06365798  0.68899430     0.15200
H795        H  0.40540517  0.94322494  0.69805227     0.14900
N796        N  0.41393259  0.98675098  0.75333413     0.74000
O797        O  0.29602890  0.01453828  0.63370675    -0.39500
O798        O  0.33429612  0.04441420  0.61225930    -0.39400
O799        O  0.40675339  0.96018203  0.77334611    -0.40100
O800        O  0.44272942  0.99932301  0.75640972    -0.40200
C801        C  0.25299720  0.83679521  0.65883980    -0.12500
C802        C  0.22255182  0.84223005  0.63865823     0.04500
C803        C  0.22123378  0.84314409  0.60302877    -0.07800
C804        C  0.24997053  0.84353708  0.58893581    -0.08500
C805        C  0.28054275  0.84242340  0.60943135    -0.03100
C806        C  0.28172043  0.83670236  0.64469577     0.03800
N807        N  0.31191973  0.83136685  0.66673151     0.66300
H808        H  0.25477555  0.83445933  0.68603518     0.15200
H809        H  0.24822749  0.84680114  0.56179559     0.14900
N810        N  0.19095930  0.84480213  0.58063196     0.74000
O811        O  0.32520617  0.86095900  0.68298793    -0.39500
O812        O  0.32185113  0.79629890  0.67479421    -0.39400
O813        O  0.18229403  0.87695609  0.56499545    -0.40100
O814        O  0.17615866  0.81260757  0.57175827    -0.40200
C815        C  0.48827732  0.94821176  0.61042664    -0.12500
C816        C  0.47053261  0.91292373  0.61356724     0.04500
C817        C  0.48636092  0.88041298  0.63223427    -0.07800
C818        C  0.01762986  0.87988709  0.64361581    -0.08500
C819        C  0.03512623  0.91582499  0.64372901    -0.03100
C820        C  0.01909925  0.95023550  0.62839303     0.03800
N821        N  0.03590626  0.98727762  0.62651154     0.66300
H822        H  0.47668668  0.97365311  0.59644970     0.15200
H823        H  0.02932087  0.85305618  0.65520904     0.14900
N824        N  0.46953560  0.84431157  0.63777815     0.74000
O825        O  0.05012846  0.99405507  0.60158423    -0.39500
O826        O  0.03157633  0.01565507  0.64615395    -0.39400
O827        O  0.47277771  0.81371167  0.62006341    -0.40100
O828        O  0.45694060  0.84070097  0.66421539    -0.40200
C829        C  0.12236286  0.29279728  0.98553800    -0.12500
C830        C  0.12729910  0.29021246  0.52357460     0.04500
C831        C  0.12516461  0.25157232  0.53731734    -0.07800
C832        C  0.13047687  0.21796494  0.01634498    -0.08500
C833        C  0.13036755  0.22067872  0.98109109    -0.03100
C834        C  0.12611825  0.25882442  0.96578355     0.03800
N835        N  0.12631694  0.26393404  0.93042354     0.66300
H836        H  0.11919613  0.32169313  0.97293385     0.14400
H837        H  0.13354921  0.18906971  0.02896091     0.14900
N838        N  0.11906328  0.24630817  0.57110806     0.74000
O839        O  0.09979812  0.26745372  0.91050919    -0.39500
O840        O  0.15253876  0.27224982  0.92013231    -0.39400
O841        O  0.09034396  0.24163043  0.57646043    -0.40100
O842        O  0.14243846  0.23945613  0.59456583    -0.40200
C843        C  0.38095219  0.29106803  0.76459128    -0.12500
C844        C  0.37424654  0.28949551  0.72886284     0.04500
C845        C  0.36605201  0.25211453  0.71353496    -0.07800
C846        C  0.36512634  0.21777008  0.73358575    -0.08500
C847        C  0.37196859  0.21917504  0.76929750    -0.03100
C848        C  0.37998894  0.25658985  0.78470223     0.03800
N849        N  0.38726312  0.26031665  0.82061873     0.66300
H850        H  0.38749430  0.31928420  0.77726957     0.15200
H851        H  0.35872759  0.18962979  0.72071968     0.14900
N852        N  0.35903630  0.24811810  0.67761949     0.74000
O853        O  0.41636670  0.25816460  0.83511274    -0.39500
O854        O  0.36577811  0.27309699  0.83681234    -0.39400
O855        O  0.38080618  0.23570705  0.66164156    -0.40100
O856        O  0.33000296  0.24995486  0.66287823    -0.40200
C857        C  0.22997408  0.38750467  0.60700545    -0.12500
C858        C  0.21315163  0.42406823  0.60675970     0.04500
C859        C  0.23027375  0.45879596  0.61937295    -0.07800
C860        C  0.26330527  0.45580875  0.63301706    -0.08500
C861        C  0.27969751  0.41867633  0.63439813    -0.03100
C862        C  0.26260891  0.38439158  0.62071129     0.03800
N863        N  0.27792719  0.34601225  0.62001338     0.66300
H864        H  0.21759300  0.36048964  0.59697498     0.15200
H865        H  0.27608408  0.48266474  0.64277948     0.14900
N866        N  0.21451545  0.49697741  0.61929693     0.74000
O867        O  0.27685390  0.32149031  0.64384427    -0.39500
O868        O  0.28639900  0.33380706  0.59292517    -0.39400
O869        O  0.20531633  0.50953927  0.64591701    -0.40100
O870        O  0.21509488  0.52083702  0.59490619    -0.40200
C871        C  0.49476940  0.34368048  0.58641451    -0.12500
C872        C  0.02686547  0.34471873  0.60751064     0.04500
C873        C  0.02746419  0.33931262  0.64264935    -0.07800
C874        C  0.99858701  0.34093029  0.65624328    -0.08500
C875        C  0.46640201  0.34176838  0.63533109    -0.03100
C876        C  0.46573017  0.34281539  0.59979316     0.03800
N877        N  0.43584224  0.34464717  0.57674048     0.66300
H878        H  0.49345836  0.34715317  0.55933518     0.15200
H879        H  0.00000091  0.33881716  0.68342435     0.14900
N880        N  0.05733115  0.33364090  0.66517967     0.74000
O881        O  0.42592569  0.37785665  0.56371607    -0.39500
O882        O  0.42301815  0.31254528  0.56447302    -0.39400
O883        O  0.06971511  0.36263874  0.68293050    -0.40100
O884        O  0.06766508  0.29846911  0.67212273    -0.40200
C885        C  0.36338799  0.74680914  0.53192592    -0.12500
C886        C  0.37657540  0.78308525  0.52281984     0.04500
C887        C  0.38937982  0.78806335  0.99183208    -0.07800
C888        C  0.38718861  0.75534436  0.96944785    -0.08500
C889        C  0.36966674  0.72090263  0.97521206    -0.03100
C890        C  0.36158549  0.71315272  0.51046743     0.03800
N891        N  0.34731706  0.67709021  0.52059847     0.66300
H892        H  0.35312851  0.74505409  0.55506862     0.15200
H893        H  0.40043196  0.75618537  0.94830386     0.14900
N894        N  0.40821596  0.82212507  0.98540931     0.74000
O895        O  0.36391382  0.65374226  0.54146383    -0.39500
O896        O  0.30448813  0.68766387  0.00168704    -0.39400
O897        O  0.43426758  0.82442559  0.49117003    -0.40100
O898        O  0.39611625  0.84825128  0.96422384    -0.40200
C899        C  0.40312896  0.47824454  0.79912959    -0.12500
C900        C  0.37884235  0.48137469  0.77065328     0.04500
C901        C  0.35538078  0.51256449  0.77010651    -0.07800
C902        C  0.35625316  0.53859426  0.79792180    -0.08500
C903        C  0.38019031  0.53458723  0.82655650    -0.03100
C904        C  0.40411014  0.50432205  0.82662694     0.03800
N905        N  0.43004921  0.49993257  0.85438639     0.66300
H906        H  0.42200558  0.45566799  0.80004109     0.15200
H907        H  0.33751758  0.56128620  0.79747950     0.14900
N908        N  0.33057937  0.51862632  0.74153603     0.74000
O909        O  0.42891430  0.47228453  0.87572650    -0.39500
O910        O  0.45647281  0.51794048  0.85369613    -0.39400
O911        O  0.30225487  0.50607027  0.74245242    -0.40100
O912        O  0.33524558  0.54316219  0.71878192    -0.40200
C913        C  0.40538289  0.51669395  0.54246699    -0.12500
C914        C  0.37607195  0.52485119  0.52094827     0.04500
C915        C  0.34825697  0.50219783  0.52476021    -0.07800
C916        C  0.35016664  0.47277773  0.55018730    -0.08500
C917        C  0.37934939  0.46579086  0.57211428    -0.03100
C918        C  0.40724955  0.48756070  0.56767020     0.03800
N919        N  0.43761798  0.48104572  0.58924856     0.66300
H920        H  0.42740967  0.53245414  0.53943078     0.15200
H921        H  0.32829787  0.45733950  0.55425665     0.14900
N922        N  0.31755664  0.51021381  0.50441319     0.74000
O923        O  0.45715627  0.45518223  0.58119757    -0.39500
O924        O  0.44749174  0.50626504  0.61203258    -0.39400
O925        O  0.30341150  0.49114184  0.98211070    -0.40100
O926        O  0.29527219  0.54059112  0.01539819    -0.40200
C927        C  0.48965683  0.54448475  0.99605425    -0.12500
C928        C  0.46480163  0.52062808  0.97835250     0.04500
C929        C  0.46660479  0.47757213  0.48394619    -0.07800
C930        C  0.99289432  0.46020601  0.50553576    -0.08500
C931        C  0.01860825  0.48432851  0.52143608    -0.03100
C932        C  0.01957167  0.52792014  0.01629927     0.03800
N933        N  0.04613785  0.55353216  0.02895517     0.66300
H934        H  0.48890006  0.57683511  0.99370915     0.15200
H935        H  0.99331633  0.42791333  0.50905619     0.14900
N936        N  0.44000367  0.45201723  0.47130434     0.74000
O937        O  0.04333442  0.57729634  0.05281415    -0.39500
O938        O  0.06804239  0.55967568  0.01122868    -0.39400
O939        O  0.44230040  0.42889391  0.44687469    -0.40100
O940        O  0.41765365  0.44651277  0.48858119    -0.40200
C941        C  0.10787336  0.75637267  0.77832360    -0.12500
C942        C  0.11981330  0.71887556  0.77034271     0.04500
C943        C  0.13490631  0.71522500  0.74132779    -0.07800
C944        C  0.13725616  0.74871674  0.72051399    -0.08500
C945        C  0.12515076  0.78619993  0.72842807    -0.03100
C946        C  0.11036469  0.78985629  0.75766981     0.03800
N947        N  0.09691993  0.82732672  0.76613454     0.66300
H948        H  0.09542192  0.75936318  0.79994079     0.15200
H949        H  0.15005908  0.74589340  0.69914481     0.14900
N950        N  0.14973904  0.67822887  0.73394599     0.74000
O951        O  0.06881220  0.83734396  0.75202752    -0.39500
O952        O  0.11062607  0.84689882  0.79134989    -0.39400
O953        O  0.13702323  0.65736458  0.70909038    -0.40100
O954        O  0.17810376  0.67006816  0.74851204    -0.40200
C955        C  0.13753553  0.53158744  0.94247749    -0.12500
C956        C  0.10791087  0.54063782  0.92225654     0.04500
C957        C  0.07981886  0.51996460  0.92759861    -0.07800
C958        C  0.08191586  0.48945376  0.95181769    -0.08500
C959        C  0.11171980  0.47926112  0.97164825    -0.03100
C960        C  0.13969942  0.50124121  0.96706044     0.03800
N961        N  0.17071610  0.49251712  0.98633396     0.66300
H962        H  0.15947530  0.54639736  0.93777735     0.15200
H963        H  0.05976246  0.47465009  0.95583027     0.14900
N964        N  0.04886601  0.52991948  0.90856615     0.74000
O965        O  0.18677890  0.46301912  0.97805002    -0.39500
O966        O  0.18496581  0.51928150  0.00540579    -0.39400
O967        O  0.03514285  0.50572806  0.88666534    -0.40100
O968        O  0.03303151  0.55920064  0.91761535    -0.40200
C969        C  0.09626354  0.54582556  0.69216863    -0.12500
C970        C  0.11077460  0.53214100  0.72397810     0.04500
C971        C  0.12479820  0.49317780  0.72672509    -0.07800
C972        C  0.12425090  0.46914791  0.69787861    -0.08500
C973        C  0.10986391  0.48292738  0.66591128    -0.03100
C974        C  0.09572410  0.52207284  0.66337726     0.03800
N975        N  0.08064291  0.53863636  0.63178509     0.66300
H976        H  0.08499206  0.57529188  0.68954782     0.15200
H977        H  0.13518936  0.43952123  0.70061582     0.14900
N978        N  0.13840082  0.47663754  0.75878697     0.74000
O979        O  0.05044854  0.53482850  0.62273814    -0.39500
O980        O  0.09603368  0.56340924  0.61656747    -0.39400
O981        O  0.12097048  0.45521888  0.77463724    -0.40100
O982        O  0.16878973  0.47617779  0.76753493    -0.40200
C983        C  0.22240376  0.62420076  0.87936298    -0.12500
C984        C  0.20850041  0.59174978  0.85992543     0.04500
C985        C  0.22858865  0.55949247  0.85347116    -0.07800
C986        C  0.26184866  0.56025948  0.86646950    -0.08500
C987        C  0.27572246  0.59296344  0.88567674    -0.03100
C988        C  0.25554919  0.62517423  0.89208577     0.03800
N989        N  0.26798214  0.65846360  0.91256585     0.66300
H990        H  0.20735129  0.64901106  0.88515963     0.15200
H991        H  0.27705734  0.53563132  0.86063808     0.14900
N992        N  0.21612669  0.52708298  0.83201024     0.74000
O993        O  0.27759192  0.68926579  0.89872895    -0.39500
O994        O  0.26225988  0.66076232  0.94246593    -0.39400
O995        O  0.22043700  0.52713348  0.80156039    -0.40100
O996        O  0.20743853  0.49513133  0.84491750    -0.40200
C997        C  0.02364159  0.66758924  0.89498455    -0.12500
C998        C  0.02121567  0.66912378  0.85956633     0.04500
C999        C  0.99012181  0.67411836  0.84018438    -0.07800
C1000       C  0.46417522  0.67667625  0.85615475    -0.08500
C1001       C  0.46644460  0.66427804  0.89013213    -0.03100
C1002       C  0.49762288  0.65668204  0.90854503     0.03800
N1003       N  0.50203420  0.64195467  0.94243808     0.66300
H1004       H  0.04724927  0.66566565  0.91074089     0.15200
H1005       H  0.44061491  0.68394690  0.84179146     0.14900
N1006       N  0.98636621  0.68352376  0.80494716     0.74000
O1007       O  0.01609777  0.63681582  0.96246981    -0.39500
O1008       O  0.50301474  0.66656990  0.96648675    -0.39400
O1009       O  0.46550193  0.68189830  0.78420083    -0.40100
O1010       O  0.99190028  0.71880490  0.79587361    -0.40200
C1011       C  0.46505629  0.52376162  0.73156568    -0.12500
C1012       C  0.47192214  0.48753068  0.71656279     0.04500
C1013       C  0.50273051  0.46935578  0.72602438    -0.07800
C1014       C  0.02410357  0.50056850  0.74734820    -0.08500
C1015       C  0.01650208  0.52230834  0.77498525    -0.03100
C1016       C  0.98383334  0.53126772  0.77694408     0.03800
N1017       N  0.97500590  0.55111982  0.80583674     0.66300
H1018       H  0.44145503  0.53793497  0.72511185     0.15200
H1019       H  0.04919500  0.49518666  0.74468855     0.14900
N1020       N  0.51136609  0.43258510  0.71128180     0.74000
O1021       O  0.47953369  0.61026357  0.75292015    -0.39500
O1022       O  0.98093865  0.53427578  0.83439020    -0.39400
O1023       O  0.52759956  0.43374051  0.68734232    -0.40100
O1024       O  0.01976497  0.43206307  0.69663999    -0.40200
O1025       O  0.65744799  0.55790708  0.34019423    -0.82000
C1026       C  0.55097411  0.65604460  0.34035828     0.97400
O1027       O  0.57675203  0.64563744  0.35912510    -0.71100
O1028       O  0.62077647  0.59220992  0.38390331    -0.74700
Al1029     Al  0.61745910  0.63301843  0.34751428     1.49000
C1030       C  0.60831967  0.55722248  0.38410356     0.92600
O1031       O  0.57329609  0.52675437  0.29283031    -0.80900
O1032       O  0.58537964  0.58145642  0.24855639    -0.74500
Al1033     Al  0.61375397  0.54846448  0.31653185     1.90100
O1034       O  0.54144254  0.57830393  0.29378980    -0.73600
O1035       O  0.59691750  0.65475417  0.26758642    -0.73400
O1036       O  0.54911198  0.65354143  0.30856626    -0.79100
O1037       O  0.61719250  0.67982424  0.31701213    -0.77300
O1038       O  0.60090139  0.59953750  0.31533942    -1.13400
O1039       O  0.66012927  0.62341643  0.33996936    -0.72600
C1040       C  0.67399626  0.58978659  0.34498128     0.98100
C1041       C  0.54537627  0.54253826  0.28587444     0.94500
Al1042     Al  0.57069343  0.61600924  0.28216962     1.55600
O1043       O  0.59797166  0.53933754  0.35689356    -0.77200
C1044       C  0.61162258  0.68231665  0.28479206     0.98700
C1045       C  0.61030181  0.55933112  0.24844622     0.93600
O1046       O  0.62999639  0.55368293  0.27543131    -0.82500
O1047       O  0.82707035  0.55874171  0.40586916    -0.82000
C1048       C  0.93676862  0.65215165  0.40527273     0.97400
O1049       O  0.91210022  0.64103617  0.38516988    -0.71100
O1050       O  0.86643053  0.58969149  0.35991619    -0.74700
Al1051     Al  0.87003411  0.63103135  0.39573884     1.49000
C1052       C  0.87711958  0.55363551  0.36079462     0.92600
O1053       O  0.91099879  0.52385189  0.45139131    -0.80900
O1054       O  0.89951646  0.58117599  0.99833977    -0.74500
Al1055     Al  0.87037705  0.54697730  0.42862755     1.90100
O1056       O  0.94319751  0.57507895  0.44966199    -0.73600
O1057       O  0.88793465  0.65148188  0.47621033    -0.73400
O1058       O  0.93632697  0.65098370  0.43671126    -0.79100
O1059       O  0.87115043  0.67838341  0.42620853    -0.77300
O1060       O  0.88456721  0.59728026  0.42875787    -1.13400
O1061       O  0.82646753  0.62431562  0.40173501    -0.72600
C1062       C  0.81155337  0.59134819  0.39965578     0.98100
C1063       C  0.93914647  0.53901968  0.45693648     0.94500
Al1064     Al  0.91461073  0.61298982  0.46204401     1.55600
O1065       O  0.88487843  0.53567853  0.38844522    -0.77200
C1066       C  0.87546944  0.68029818  0.45855125     0.98700
C1067       C  0.87460562  0.55943301  0.99879231     0.93600
O1068       O  0.85494435  0.55361392  0.47015177    -0.82500
O1069       O  0.85781453  0.45375775  0.21825949    -0.82000
C1070       C  0.93731188  0.35336524  0.15223937     0.97400
O1071       O  0.93896950  0.35518801  0.18407732    -0.71100
O1072       O  0.94599835  0.43081237  0.19721884    -0.74700
Al1073     Al  0.91772214  0.39296145  0.21050956     1.49000
C1074       C  0.94173175  0.46703190  0.20349649     0.92600
O1075       O  0.88701191  0.46660686  0.13566637    -0.80900
O1076       O  0.82757665  0.38058011  0.15412589    -0.74500
Al1077     Al  0.87265809  0.45811239  0.17632892     1.90100
O1078       O  0.86521577  0.41295173  0.10920086    -0.73600
O1079       O  0.87358721  0.32631561  0.17735860    -0.73400
O1080       O  0.91132494  0.36281309  0.13355391    -0.79100
O1081       O  0.89241909  0.35393109  0.22618585    -0.77300
O1082       O  0.88655952  0.40765487  0.17779173    -1.13400
O1083       O  0.90368313  0.42849519  0.24433671    -0.72600
C1084       C  0.87841391  0.44998013  0.24480084     0.98100
C1085       C  0.87741257  0.44798991  0.10874267     0.94500
Al1086     Al  0.87054539  0.37297319  0.14607232     1.55600
O1087       O  0.91330737  0.48169760  0.19799942    -0.77200
C1088       C  0.88029452  0.32423546  0.20960434     0.98700
C1089       C  0.81309963  0.41392030  0.14937409     0.93600
O1090       O  0.82895951  0.44636215  0.15425098    -0.82500
O1091       O  0.63020727  0.45690627  0.02637610    -0.82000
C1092       C  0.55282950  0.35320996  0.09112452     0.97400
O1093       O  0.55351792  0.35324669  0.05963532    -0.71100
O1094       O  0.54276823  0.42809738  0.04556311    -0.74700
Al1095     Al  0.57350571  0.39271844  0.03386606     1.49000
C1096       C  0.54521884  0.46500142  0.04048400     0.92600
O1097       O  0.59973656  0.47024299  0.10808721    -0.80900
O1098       O  0.66155562  0.38579332  0.09352554    -0.74500
Al1099     Al  0.61468077  0.46111187  0.06793261     1.90100
O1100       O  0.62173442  0.41764038  0.13612678    -0.73600
O1101       O  0.61876502  0.32965308  0.07032485    -0.73400
O1102       O  0.57715080  0.36530943  0.11118525    -0.79100
O1103       O  0.60213927  0.35592330  0.02016274    -0.77300
O1104       O  0.60269191  0.41005689  0.06734762    -1.13400
O1105       O  0.58632735  0.42745169  0.49920518    -0.72600
C1106       C  0.61083847  0.44968144  0.49786198     0.98100
C1107       C  0.60926932  0.45266117  0.13554098     0.94500
Al1108     Al  0.61866448  0.37683893  0.10032024     1.55600
O1109       O  0.57284866  0.48171072  0.04581206    -0.77200
C1110       C  0.61505744  0.32740934  0.03808132     0.98700
C1111       C  0.67539938  0.41949614  0.09634728     0.93600
O1112       O  0.65889504  0.45155167  0.09060916    -0.82500
O1113       O  0.89097966  0.95051112  0.02470976    -0.82000
C1114       C  0.80988283  0.85622473  0.09272451     0.97400
O1115       O  0.80855232  0.85728639  0.06092779    -0.71100
O1116       O  0.80189601  0.93309832  0.04574783    -0.74700
Al1117     Al  0.83014644  0.89380690  0.03388551     1.49000
C1118       C  0.80684720  0.96919756  0.03928489     0.92600
O1119       O  0.86178018  0.97162928  0.10593668    -0.80900
O1120       O  0.91979197  0.88206619  0.09237650    -0.74500
Al1121     Al  0.87594619  0.95918519  0.06590172     1.90100
O1122       O  0.88093199  0.91833524  0.13497682    -0.73600
O1123       O  0.87404010  0.82801802  0.06975692    -0.73400
O1124       O  0.83532868  0.86709220  0.11148416    -0.79100
O1125       O  0.85576872  0.85374652  0.01963804    -0.77300
O1126       O  0.86112782  0.90938450  0.06652006    -1.13400
O1127       O  0.84350211  0.92340546  0.50132926    -0.72600
C1128       C  0.86927336  0.94342897  0.50039310     0.98100
C1129       C  0.87026513  0.95448954  0.13384772     0.94500
Al1130     Al  0.87643567  0.87612361  0.09960522     1.55600
O1131       O  0.83548779  0.98293775  0.04303078    -0.77200
C1132       C  0.86838919  0.82511913  0.03748267     0.98700
C1133       C  0.93480885  0.91492211  0.09592047     0.93600
O1134       O  0.91939197  0.94750340  0.08907774    -0.82500
O1135       O  0.61862990  0.95144939  0.22555240    -0.82000
C1136       C  0.69443030  0.85393434  0.15353055     0.97400
O1137       O  0.69591214  0.85329869  0.18540064    -0.71100
O1138       O  0.70578277  0.92823194  0.20169919    -0.74700
Al1139     Al  0.67646613  0.89093941  0.21370839     1.49000
C1140       C  0.70225900  0.96450458  0.20861816     0.92600
O1141       O  0.64532893  0.97183466  0.14274866    -0.80900
O1142       O  0.58655726  0.88445489  0.15742319    -0.74500
Al1143     Al  0.63232938  0.95938637  0.18342639     1.90100
O1144       O  0.62403360  0.92006557  0.11358382    -0.73600
O1145       O  0.63016014  0.82860176  0.17746773    -0.73400
O1146       O  0.66921407  0.86683981  0.13534910    -0.79100
O1147       O  0.64946948  0.85259787  0.22776657    -0.77300
O1148       O  0.64558885  0.90896815  0.18180750    -1.13400
O1149       O  0.66479548  0.92549380  0.24965296    -0.72600
C1150       C  0.63999762  0.94725606  0.25140452     0.98100
C1151       C  0.63510373  0.95587045  0.11475898     0.94500
Al1152     Al  0.62876704  0.87713640  0.14845897     1.55600
O1153       O  0.67409278  0.98012115  0.20470501    -0.77200
C1154       C  0.63495504  0.82540511  0.20971637     0.98700
C1155       C  0.57196629  0.91766465  0.15501538     0.93600
O1156       O  0.58782072  0.94983740  0.16179638    -0.82500
O1157       O  0.58770205  0.06324732  0.41004950    -0.82000
C1158       C  0.69955920  0.15189567  0.40901870     0.97400
O1159       O  0.67455043  0.14181572  0.38901508    -0.71100
O1160       O  0.62787134  0.09227301  0.36333199    -0.74700
Al1161     Al  0.63249046  0.13333470  0.39946755     1.49000
C1162       C  0.63724295  0.05569051  0.36415113     0.92600
O1163       O  0.67011824  0.02424572  0.45391906    -0.80900
O1164       O  0.66188785  0.08235307  0.99922251    -0.74500
Al1165     Al  0.63050247  0.04939196  0.43223550     1.90100
O1166       O  0.70498621  0.07342064  0.45405403    -0.73600
O1167       O  0.65179057  0.15388013  0.47992570    -0.73400
O1168       O  0.69965978  0.14987256  0.44048893    -0.79100
O1169       O  0.63469353  0.18051438  0.42995973    -0.77300
O1170       O  0.64631561  0.09894078  0.43252772    -1.13400
O1171       O  0.58866965  0.12859885  0.40507919    -0.72600
C1172       C  0.57303950  0.09620423  0.40289657     0.98100
C1173       C  0.69896772  0.03703408  0.45849525     0.94500
Al1174     Al  0.67709309  0.11323398  0.46589722     1.55600
O1175       O  0.64421443  0.03746037  0.39177800    -0.77200
C1176       C  0.63973512  0.18309343  0.46224485     0.98700
C1177       C  0.63598787  0.06269002  0.00014351     0.93600
O1178       O  0.61584134  0.05607723  0.47421930    -0.82500
O1179       O  0.92073181  0.05611014  0.34235701    -0.82000
C1180       C  0.81351511  0.15171174  0.34687259     0.97400
O1181       O  0.83920344  0.14046573  0.36527500    -0.71100
O1182       O  0.88460596  0.08830166  0.38911820    -0.74700
Al1183     Al  0.87957865  0.12949918  0.35247655     1.49000
C1184       C  0.87279260  0.05287162  0.38870561     0.92600
O1185       O  0.83563864  0.02261579  0.29983688    -0.80900
O1186       O  0.84478447  0.07587138  0.25348210    -0.74500
Al1187     Al  0.87672674  0.04525690  0.32076907     1.90100
O1188       O  0.80318376  0.07393738  0.30122002    -0.73600
O1189       O  0.85763955  0.14995168  0.27263703    -0.73400
O1190       O  0.81128087  0.14964652  0.31499623    -0.79100
O1191       O  0.87708566  0.17673033  0.32168267    -0.77300
O1192       O  0.86300566  0.09571736  0.32036152    -1.13400
O1193       O  0.92202360  0.12172362  0.34373074    -0.72600
C1194       C  0.93661778  0.08846387  0.34726642     0.98100
C1195       C  0.80725364  0.03742285  0.29565604     0.94500
Al1196     Al  0.83177963  0.11141846  0.28802394     1.55600
O1197       O  0.86312064  0.03570107  0.36117778    -0.77200
C1198       C  0.87042444  0.17916481  0.28942953     0.98700
C1199       C  0.86996448  0.05437745  0.25256139     0.93600
O1200       O  0.89091284  0.05044113  0.27874111    -0.82500
C1201       C  0.72706123  0.17224080  0.36054283    -0.12500
C1202       C  0.72936805  0.16328111  0.39521184     0.04500
C1203       C  0.76058141  0.16019656  0.41485185    -0.07800
C1204       C  0.78797071  0.15885258  0.39873732    -0.08500
C1205       C  0.78538331  0.16371348  0.36347835    -0.03100
C1206       C  0.75488714  0.17448201  0.34497962     0.03800
N1207       N  0.75208067  0.18985507  0.31125517     0.66300
H1208       H  0.70349427  0.17757200  0.34542884     0.15200
H1209       H  0.81137644  0.15301685  0.41400961     0.14900
N1210       N  0.76495660  0.15795910  0.45099974     0.74000
O1211       O  0.73135058  0.17541991  0.28805388    -0.39500
O1212       O  0.76495428  0.22319053  0.30649568    -0.39400
O1213       O  0.78019285  0.12880233  0.46629890    -0.40100
O1214       O  0.75933948  0.18866474  0.46759468    -0.40200
C1215       C  0.52085169  0.05946886  0.38824263    -0.12500
C1216       C  0.53765442  0.09610615  0.38989554     0.04500
C1217       C  0.52071392  0.13101980  0.37673488    -0.07800
C1218       C  0.98886458  0.12486521  0.36105153    -0.08500
C1219       C  0.97210449  0.08821430  0.35961059    -0.03100
C1220       C  0.98900641  0.05347969  0.37307514     0.03800
N1221       N  0.97345057  0.01524643  0.37230064     0.66300
H1222       H  0.53311409  0.03228209  0.39833325     0.15200
H1223       H  0.97656245  0.15198379  0.35084136     0.14900
N1224       N  0.53596097  0.16949993  0.37844954     0.74000
O1225       O  0.97521808  0.99153224  0.34812630    -0.39500
O1226       O  0.96319497  0.00250192  0.39830057    -0.39400
O1227       O  0.54492345  0.18412014  0.35239719    -0.40100
O1228       O  0.53499475  0.19164193  0.40380241    -0.40200
C1229       C  0.72327177  0.01484600  0.25098415    -0.12500
C1230       C  0.72993664  0.98538951  0.22814480     0.04500
C1231       C  0.76195352  0.97056119  0.23018125    -0.07800
C1232       C  0.78640375  0.98532337  0.25478750    -0.08500
C1233       C  0.77974459  0.01506056  0.27741190    -0.03100
C1234       C  0.74764303  0.02934673  0.27574688     0.03800
N1235       N  0.73932842  0.05887406  0.29877558     0.66300
H1236       H  0.69865672  0.02541545  0.25082097     0.15200
H1237       H  0.81104424  0.97484300  0.25494163     0.14900
N1238       N  0.77016815  0.94056624  0.20749734     0.74000
O1239       O  0.72932485  0.09284831  0.28761239    -0.39500
O1240       O  0.73491778  0.04824899  0.32792254    -0.39400
O1241       O  0.77942287  0.95118132  0.18035255    -0.40100
O1242       O  0.77543382  0.90506644  0.21806662    -0.40200
C1243       C  0.61596352  0.00552425  0.27824735    -0.12500
C1244       C  0.63851909  0.97345548  0.28131085     0.04500
C1245       C  0.66190866  0.97113493  0.31089654    -0.07800
C1246       C  0.66205758  0.99986670  0.33636784    -0.08500
C1247       C  0.63929185  0.03149698  0.33347736    -0.03100
C1248       C  0.61628780  0.03441318  0.30383014     0.03800
N1249       N  0.59240267  0.06559587  0.29975528     0.66300
H1250       H  0.59814765  0.00874676  0.25556060     0.15200
H1251       H  0.67987066  0.99683672  0.35911278     0.14900
N1252       N  0.68547056  0.93955593  0.31590572     0.74000
O1253       O  0.59727280  0.09708018  0.28376545    -0.39500
O1254       O  0.56453453  0.05885123  0.30682591    -0.39400
O1255       O  0.71437873  0.94669756  0.31229865    -0.40100
O1256       O  0.67912811  0.90768094  0.33056810    -0.40200
C1257       C  0.61598582  0.00097318  0.02581676    -0.12500
C1258       C  0.63289623  0.03772513  0.03025811     0.04500
C1259       C  0.65066429  0.04649782  0.06227810    -0.07800
C1260       C  0.65186224  0.01868427  0.08860369    -0.08500
C1261       C  0.63513892  0.98176932  0.08433700    -0.03100
C1262       C  0.61693407  0.97317148  0.05244408     0.03800
N1263       N  0.59903393  0.93668115  0.04671545     0.66300
H1264       H  0.60265776  0.99316048  0.00123202     0.15200
H1265       H  0.66580583  0.02661261  0.11286526     0.14900
N1266       N  0.66699003  0.08403119  0.06882710     0.74000
O1267       O  0.57070509  0.93454488  0.05377745    -0.39500
O1268       O  0.61242438  0.90568944  0.03710864    -0.39400
O1269       O  0.65198451  0.11349517  0.07881644    -0.40100
O1270       O  0.69743156  0.08555093  0.07084968    -0.40200
C1271       C  0.78299912  0.00290948  0.49081529    -0.12500
C1272       C  0.77971833  0.99155695  0.02052812     0.04500
C1273       C  0.74896734  0.99041230  0.03060277    -0.07800
C1274       C  0.72177548  0.00283485  0.00817665    -0.08500
C1275       C  0.72510358  0.01240262  0.47603756    -0.03100
C1276       C  0.75624392  0.01474729  0.46733818     0.03800
N1277       N  0.76036898  0.02583082  0.43377597     0.66300
H1278       H  0.80693457  0.00390063  0.48366780     0.15200
H1279       H  0.69847461  0.00417640  0.01680873     0.14900
N1280       N  0.74518283  0.97807833  0.06390823     0.74000
O1281       O  0.77235872  0.05937932  0.42813470    -0.39500
O1282       O  0.74995227  0.00302974  0.40932803    -0.39400
O1283       O  0.74315614  0.00451895  0.08599073    -0.40100
O1284       O  0.73580013  0.94284757  0.06863693    -0.40200
C1285       C  0.89252473  0.00343338  0.47550535    -0.12500
C1286       C  0.87201481  0.96951848  0.47092689     0.04500
C1287       C  0.85084245  0.96532417  0.44008617    -0.07800
C1288       C  0.85018661  0.99460580  0.41512050    -0.08500
C1289       C  0.87103476  0.02813696  0.41923739    -0.03100
C1290       C  0.89218422  0.03258890  0.45003584     0.03800
N1291       N  0.91363683  0.06606338  0.45578608     0.66300
H1292       H  0.90847848  0.00796682  0.49930871     0.15200
H1293       H  0.83358310  0.99022548  0.39169640     0.14900
N1294       N  0.83036661  0.93101060  0.43314124     0.74000
O1295       O  0.94241316  0.06273116  0.45019784    -0.39500
O1296       O  0.90575732  0.09599052  0.47200823    -0.39400
O1297       O  0.80081750  0.93362282  0.43616419    -0.40100
O1298       O  0.83963304  0.90220960  0.41657976    -0.40200
C1299       C  0.85356251  0.04052361  0.19145803    -0.12500
C1300       C  0.87244275  0.02972993  0.22217283     0.04500
C1301       C  0.88986976  0.99286709  0.22406423    -0.07800
C1302       C  0.88800634  0.96799271  0.19552999    -0.08500
C1303       C  0.86925539  0.97906039  0.16469930    -0.03100
C1304       C  0.85188427  0.01602803  0.16298601     0.03800
N1305       N  0.83176175  0.02913765  0.13265819     0.66300
H1306       H  0.83957022  0.06815745  0.18949937     0.15200
H1307       H  0.90173043  0.94017081  0.19745299     0.14900
N1308       N  0.90867775  0.97935925  0.25500861     0.74000
O1309       O  0.80171972  0.02225803  0.12868704    -0.39500
O1310       O  0.84250776  0.05459024  0.11390483    -0.39400
O1311       O  0.89683446  0.95398531  0.27298261    -0.40100
O1312       O  0.93868368  0.98666427  0.26092485    -0.40200
C1313       C  0.75372739  0.83934918  0.15770673    -0.12500
C1314       C  0.72318718  0.84312349  0.13743898     0.04500
C1315       C  0.72166839  0.84280648  0.10183510    -0.07800
C1316       C  0.75026420  0.84423195  0.08766547    -0.08500
C1317       C  0.78083927  0.84522477  0.10814997    -0.03100
C1318       C  0.78236134  0.84038420  0.14354778     0.03800
N1319       N  0.81272608  0.83769407  0.16574267     0.66300
H1320       H  0.75559600  0.83790709  0.18494653     0.15200
H1321       H  0.74833027  0.84656133  0.06044173     0.14900
N1322       N  0.69129674  0.84210692  0.07956503     0.74000
O1323       O  0.82566206  0.86911470  0.17930925    -0.39500
O1324       O  0.82293808  0.80380950  0.17701631    -0.39400
O1325       O  0.68138517  0.87320820  0.06297681    -0.40100
O1326       O  0.67777960  0.80885197  0.07167343    -0.40200
C1327       C  0.98602952  0.95259141  0.11707147    -0.12500
C1328       C  0.97005161  0.91554654  0.11047892     0.04500
C1329       C  0.98756806  0.87991168  0.12048636    -0.07800
C1330       C  0.52264275  0.88207326  0.12732928    -0.08500
C1331       C  0.53668516  0.91791811  0.14132478    -0.03100
C1332       C  0.51726686  0.95289855  0.13930302     0.03800
N1333       N  0.53000710  0.99022907  0.15297262     0.66300
H1334       H  0.97319525  0.98043460  0.11000163     0.15200
H1335       H  0.53702515  0.85487131  0.12773431     0.14900
N1336       N  0.97317726  0.84112794  0.11472797     0.74000
O1337       O  0.54136729  0.01501003  0.13411796    -0.39500
O1338       O  0.52432692  0.00142982  0.18152212    -0.39400
O1339       O  0.97834579  0.82084105  0.08954427    -0.40100
O1340       O  0.96096577  0.82426150  0.13793119    -0.40200
C1341       C  0.62302638  0.29208821  0.48461838    -0.12500
C1342       C  0.62363387  0.29103912  0.01977855     0.04500
C1343       C  0.62580790  0.25250734  0.03443369    -0.07800
C1344       C  0.63479501  0.21819611  0.51637150    -0.08500
C1345       C  0.63311103  0.22033785  0.48086701    -0.03100
C1346       C  0.62750691  0.25812901  0.46515110     0.03800
N1347       N  0.62723345  0.26298537  0.42968372     0.66300
H1348       H  0.61847609  0.32061569  0.47163760     0.14400
H1349       H  0.63948131  0.18973031  0.52941623     0.14900
N1350       N  0.62336966  0.24679144  0.06927264     0.74000
O1351       O  0.60050225  0.26475362  0.40993050    -0.39500
O1352       O  0.65293304  0.27313996  0.41912801    -0.39400
O1353       O  0.59681969  0.23567501  0.07744260    -0.40100
O1354       O  0.64879218  0.24621264  0.09106159    -0.40200
C1355       C  0.88697850  0.28734400  0.26482202    -0.12500
C1356       C  0.87649859  0.28689466  0.22939733     0.04500
C1357       C  0.86521790  0.25042918  0.21430762    -0.07800
C1358       C  0.86477615  0.21589529  0.23429605    -0.08500
C1359       C  0.87494595  0.21639340  0.26976044    -0.03100
C1360       C  0.88635729  0.25282528  0.28485952     0.03800
N1361       N  0.89744992  0.25552677  0.32040338     0.66300
H1362       H  0.89616139  0.31473553  0.27737728     0.15200
H1363       H  0.85559243  0.18853754  0.22168337     0.14900
N1364       N  0.85349844  0.24787625  0.17887850     0.74000
O1365       O  0.92696537  0.24904288  0.33184434    -0.39500
O1366       O  0.87950611  0.27154307  0.33918998    -0.39400
O1367       O  0.87024733  0.23008605  0.15983764    -0.40100
O1368       O  0.82426820  0.25652553  0.16786621    -0.40200
C1369       C  0.72908702  0.38572905  0.10390263    -0.12500
C1370       C  0.71097662  0.42042940  0.10811058     0.04500
C1371       C  0.72676848  0.45310508  0.12621936    -0.07800
C1372       C  0.75985459  0.45024142  0.13986579    -0.08500
C1373       C  0.77779934  0.41522659  0.13596952    -0.03100
C1374       C  0.76200343  0.38286032  0.11741096     0.03800
N1375       N  0.77914973  0.34720418  0.11099403     0.66300
H1376       H  0.71759214  0.36033315  0.08996597     0.15200
H1377       H  0.77148394  0.47550595  0.15386259     0.14900
N1378       N  0.70939216  0.48867829  0.13233335     0.74000
O1379       O  0.77624214  0.31589336  0.12801157    -0.39500
O1380       O  0.79173556  0.34479217  0.08446342    -0.39400
O1381       O  0.70191542  0.49450867  0.16122233    -0.40100
O1382       O  0.70754637  0.51741723  0.11154647    -0.40200
C1383       C  0.99489271  0.34338362  0.08769857    -0.12500
C1384       C  0.52243448  0.34278195  0.10425600     0.04500
C1385       C  0.52235488  0.33280502  0.13854788    -0.07800
C1386       C  0.49317406  0.33319687  0.15183668    -0.08500
C1387       C  0.96661745  0.34345264  0.13669630    -0.03100
C1388       C  0.96586264  0.34302867  0.10115571     0.03800
N1389       N  0.93591424  0.34387506  0.07818076     0.66300
H1390       H  0.99357149  0.34558427  0.06052809     0.15200
H1391       H  0.49404582  0.32739595  0.17857698     0.14900
N1392       N  0.55171839  0.32205703  0.16023430     0.74000
O1393       O  0.92595278  0.37647756  0.06401203    -0.39500
O1394       O  0.92310333  0.31124775  0.06710977    -0.39400
O1395       O  0.56443343  0.34622749  0.18269915    -0.40100
O1396       O  0.56146894  0.28610312  0.16098162    -0.40200
C1397       C  0.85665761  0.75283993  0.02624924    -0.12500
C1398       C  0.87313602  0.78754174  0.01901661     0.04500
C1399       C  0.88401803  0.78705148  0.48918387    -0.07800
C1400       C  0.88180303  0.75365795  0.46767066    -0.08500
C1401       C  0.86973517  0.71712171  0.47742319    -0.03100
C1402       C  0.85405127  0.71965860  0.00435953     0.03800
N1403       N  0.83560028  0.68569470  0.01186768     0.66300
H1404       H  0.84437439  0.75219274  0.04810680     0.15200
H1405       H  0.89098976  0.75583421  0.44392437     0.14900
N1406       N  0.89735858  0.82339802  0.47840791     0.74000
O1407       O  0.84750792  0.66136475  0.03472668    -0.39500
O1408       O  0.81555508  0.67268270  0.51276995    -0.39400
O1409       O  0.93420743  0.82587876  0.99051625    -0.40100
O1410       O  0.88009997  0.84569365  0.45720918    -0.40200
C1411       C  0.90060434  0.47233271  0.30300170    -0.12500
C1412       C  0.87591283  0.47536707  0.27491517     0.04500
C1413       C  0.85234781  0.50630439  0.27465270    -0.07800
C1414       C  0.85427177  0.53331444  0.30184280    -0.08500
C1415       C  0.87888911  0.52982022  0.32989945    -0.03100
C1416       C  0.90220287  0.49873856  0.33025670     0.03800
N1417       N  0.92757553  0.49305316  0.35842650     0.66300
H1418       H  0.91921044  0.44940877  0.30387503     0.15200
H1419       H  0.83563992  0.55611073  0.30158616     0.14900
N1420       N  0.82613113  0.51073081  0.24721295     0.74000
O1421       O  0.92408792  0.46711782  0.38052974    -0.39500
O1422       O  0.95553719  0.50651908  0.35707038    -0.39400
O1423       O  0.79911844  0.49478947  0.24917501    -0.40100
O1424       O  0.82798170  0.53658469  0.22455318    -0.40200
C1425       C  0.90212455  0.52653742  0.05106819    -0.12500
C1426       C  0.87358943  0.53155018  0.02757107     0.04500
C1427       C  0.84751797  0.50460122  0.02871535    -0.07800
C1428       C  0.85017452  0.47448675  0.05357835    -0.08500
C1429       C  0.87844448  0.47054257  0.07738006    -0.03100
C1430       C  0.90485940  0.49626427  0.07542800     0.03800
N1431       N  0.93476266  0.49194629  0.09823940     0.66300
H1432       H  0.92304569  0.54539665  0.05001481     0.15200
H1433       H  0.82942216  0.45560813  0.05541099     0.14900
N1434       N  0.81796068  0.50773572  0.00531030     0.74000
O1435       O  0.95607651  0.46783898  0.09119470    -0.39500
O1436       O  0.94211108  0.51700816  0.12179560    -0.39400
O1437       O  0.80864067  0.48471699  0.48443727    -0.40100
O1438       O  0.79705296  0.53677344  0.51329394    -0.40200
C1439       C  0.99108033  0.54256210  0.49521270    -0.12500
C1440       C  0.96629937  0.51840527  0.47780136     0.04500
C1441       C  0.96501099  0.48045949  0.99194372    -0.07800
C1442       C  0.49008253  0.46236642  0.00739998    -0.08500
C1443       C  0.51634613  0.48593167  0.02292252    -0.03100
C1444       C  0.52115593  0.52517381  0.50806991     0.03800
N1445       N  0.54821363  0.55047990  0.51970969     0.66300
H1446       H  0.98997637  0.57490362  0.49296411     0.15200
H1447       H  0.48979881  0.43017669  0.01140065     0.14900
N1448       N  0.93795007  0.45532016  0.97994360     0.74000
O1449       O  0.54674584  0.57431705  0.54386870    -0.39500
O1450       O  0.57001855  0.55519929  0.50160164    -0.39400
O1451       O  0.93901221  0.43290395  0.95478648    -0.40100
O1452       O  0.91647802  0.44945905  0.99825554    -0.40200
C1453       C  0.61817527  0.75635178  0.28059368    -0.12500
C1454       C  0.61980483  0.71843984  0.26603429     0.04500
C1455       C  0.62436959  0.71603368  0.23167710    -0.07800
C1456       C  0.62740474  0.75112429  0.21297005    -0.08500
C1457       C  0.62597739  0.78902928  0.22767212    -0.03100
C1458       C  0.62063073  0.79137370  0.26172635     0.03800
N1459       N  0.61630156  0.82925163  0.27719101     0.66300
H1460       H  0.61338710  0.75892448  0.30629985     0.15200
H1461       H  0.63209903  0.74860543  0.18722949     0.14900
N1462       N  0.62686474  0.67809380  0.21557826     0.74000
O1463       O  0.58945297  0.84736230  0.27028465    -0.39500
O1464       O  0.63687684  0.84095414  0.30175710    -0.39400
O1465       O  0.60405223  0.66637366  0.19321050    -0.40100
O1466       O  0.65381790  0.66002852  0.21925369    -0.40200
C1467       C  0.63761773  0.52632713  0.43682258    -0.12500
C1468       C  0.60814727  0.53421309  0.41562403     0.04500
C1469       C  0.58025894  0.51276482  0.42068033    -0.07800
C1470       C  0.58217940  0.48398623  0.44642389    -0.08500
C1471       C  0.61167245  0.47557945  0.46763760    -0.03100
C1472       C  0.63967721  0.49712618  0.46250196     0.03800
N1473       N  0.67067614  0.48837967  0.48197467     0.66300
H1474       H  0.65952447  0.54127507  0.43221631     0.15200
H1475       H  0.56008439  0.46900188  0.45037630     0.14900
N1476       N  0.54958314  0.52040301  0.40007965     0.74000
O1477       O  0.68692861  0.45896110  0.47386904    -0.39500
O1478       O  0.68416720  0.51386464  0.50286287    -0.39400
O1479       O  0.53902587  0.49650800  0.37648318    -0.40100
O1480       O  0.53072712  0.54634500  0.40930908    -0.40200
C1481       C  0.58558754  0.53341330  0.19251806    -0.12500
C1482       C  0.61258571  0.53426404  0.21834085     0.04500
C1483       C  0.63777777  0.50578182  0.21760865    -0.07800
C1484       C  0.63493361  0.47664103  0.19204940    -0.08500
C1485       C  0.60794432  0.47618693  0.16635424    -0.03100
C1486       C  0.58303871  0.50490943  0.16684832     0.03800
N1487       N  0.55496119  0.50578359  0.14116856     0.66300
H1488       H  0.56560547  0.55425098  0.19262222     0.15200
H1489       H  0.65477941  0.45579688  0.19120460     0.14900
N1490       N  0.66680400  0.50665729  0.24193984     0.74000
O1491       O  0.53112220  0.48352606  0.14385726    -0.39500
O1492       O  0.55153615  0.53388079  0.11973498    -0.39400
O1493       O  0.67353888  0.47757030  0.26208543    -0.40100
O1494       O  0.68819463  0.53263054  0.23925217    -0.40200
C1495       C  0.72432570  0.62483595  0.37065683    -0.12500
C1496       C  0.70925817  0.58871489  0.35883840     0.04500
C1497       C  0.72788559  0.55296969  0.36236537    -0.07800
C1498       C  0.76089528  0.55432787  0.37642796    -0.08500
C1499       C  0.77595587  0.59066240  0.38775770    -0.03100
C1500       C  0.75700359  0.62608513  0.38522947     0.03800
N1501       N  0.77021757  0.66359364  0.39804331     0.66300
H1502       H  0.71054435  0.65259870  0.36920202     0.15200
H1503       H  0.77487540  0.52671235  0.37805792     0.14900
N1504       N  0.71394941  0.51508931  0.35160686     0.74000
O1505       O  0.77857688  0.68928938  0.37794947    -0.39500
O1506       O  0.76770540  0.67386540  0.42781166    -0.39400
O1507       O  0.72034866  0.49943562  0.32478189    -0.40100
O1508       O  0.70141250  0.49382839  0.37216207    -0.40200
C1509       C  0.52531680  0.66425961  0.39197683    -0.12500
C1510       C  0.52233062  0.66745704  0.35659016     0.04500
C1511       C  0.49117434  0.67526679  0.33801803    -0.07800
C1512       C  0.96443171  0.67546065  0.35750343    -0.08500
C1513       C  0.96670884  0.66416569  0.39172040    -0.03100
C1514       C  0.99799680  0.65981896  0.41100874     0.03800
N1515       N  0.00257535  0.65093695  0.44636800     0.66300
H1516       H  0.54904531  0.66038675  0.40716332     0.15200
H1517       H  0.94077835  0.68120453  0.34272059     0.14900
N1518       N  0.48701280  0.68691958  0.30314643     0.74000
O1519       O  0.52174026  0.63497384  0.45930036    -0.39500
O1520       O  0.99955106  0.67879259  0.46696623    -0.39400
O1521       O  0.96536428  0.68670093  0.28651436    -0.40100
O1522       O  0.50195523  0.71726424  0.29475391    -0.40200
C1523       C  0.96087408  0.52153058  0.24323968    -0.12500
C1524       C  0.96853930  0.48891196  0.22391409     0.04500
C1525       C  0.00036902  0.47291643  0.22997596    -0.07800
C1526       C  0.52543895  0.48392258  0.25082613    -0.08500
C1527       C  0.51937896  0.52225846  0.26286356    -0.03100
C1528       C  0.49064691  0.54278884  0.24850496     0.03800
N1529       N  0.48352064  0.58275778  0.25795363     0.66300
H1530       H  0.93649319  0.53385463  0.23948184     0.15200
H1531       H  0.54789493  0.46830003  0.26023700     0.14900
N1532       N  0.01005716  0.44075152  0.21016908     0.74000
O1533       O  0.97406999  0.60650196  0.27041149    -0.39500
O1534       O  0.46250342  0.58802952  0.27690293    -0.39400
O1535       O  0.02242330  0.44870137  0.18420207    -0.40100
O1536       O  0.50616740  0.39583145  0.23406330    -0.40200
O1537       O  0.65753038  0.55809778  0.83976869    -0.82000
C1538       C  0.55114311  0.65670540  0.84109547     0.97400
O1539       O  0.57665651  0.64534792  0.85976499    -0.71100
O1540       O  0.61992472  0.59177758  0.88446126    -0.74700
Al1541     Al  0.61738597  0.63300098  0.84874763     1.49000
C1542       C  0.60745431  0.55678593  0.88386947     0.92600
O1543       O  0.57296383  0.52845185  0.79328562    -0.80900
O1544       O  0.58509342  0.58250973  0.74847216    -0.74500
Al1545     Al  0.61373154  0.54928875  0.81632904     1.90100
O1546       O  0.54129886  0.58054770  0.79367118    -0.73600
O1547       O  0.59855510  0.65601997  0.76894463    -0.73400
O1548       O  0.54970532  0.65565572  0.80925392    -0.79100
O1549       O  0.61768670  0.68013831  0.81921160    -0.77300
O1550       O  0.60103416  0.60029278  0.81586330    -1.13400
O1551       O  0.66021409  0.62359635  0.84180849    -0.72600
C1552       C  0.67403674  0.58985592  0.84562326     0.98100
C1553       C  0.54498913  0.54424302  0.78716514     0.94500
Al1554     Al  0.57116727  0.61765765  0.78259957     1.55600
O1555       O  0.59824271  0.53933529  0.85629240    -0.77200
C1556       C  0.61308937  0.68309290  0.78707455     0.98700
C1557       C  0.60975804  0.55987089  0.74839084     0.93600
O1558       O  0.62971975  0.55501645  0.77523954    -0.82500
O1559       O  0.82678857  0.55794812  0.90802015    -0.82000
C1560       C  0.93545038  0.65208390  0.90535421     0.97400
O1561       O  0.91115404  0.63915012  0.88567145    -0.71100
O1562       O  0.86571675  0.58659660  0.86194935    -0.74700
Al1563     Al  0.86926315  0.62981105  0.89637259     1.49000
C1564       C  0.87643225  0.55047755  0.86387804     0.92600
O1565       O  0.91092408  0.52553224  0.95531597    -0.80900
O1566       O  0.90078797  0.57844880  0.49579309    -0.74500
Al1567     Al  0.87013557  0.54740112  0.93160277     1.90100
O1568       O  0.94277372  0.57704367  0.95309339    -0.73600
O1569       O  0.88584475  0.65416854  0.97606554    -0.73400
O1570       O  0.93505750  0.65220553  0.93691344    -0.79100
O1571       O  0.87031200  0.67891192  0.92502028    -0.77300
O1572       O  0.88392748  0.59767475  0.93045429    -1.13400
O1573       O  0.82581910  0.62346637  0.90275850    -0.72600
C1574       C  0.81112301  0.59036647  0.90120574     0.98100
C1575       C  0.93901609  0.54096783  0.96058830     0.94500
Al1576     Al  0.91337656  0.61509934  0.96362013     1.55600
O1577       O  0.88519825  0.53443027  0.89215179    -0.77200
C1578       C  0.87410701  0.68247369  0.95723984     0.98700
C1579       C  0.87560164  0.55747892  0.49656715     0.93600
O1580       O  0.85406825  0.55595641  0.97233078    -0.82500
O1581       O  0.85825076  0.45433945  0.71910876    -0.82000
C1582       C  0.93979677  0.35825639  0.65175719     0.97400
O1583       O  0.94255414  0.36162484  0.68357061    -0.71100
O1584       O  0.94689768  0.43746976  0.69728381    -0.74700
Al1585     Al  0.92037166  0.39722488  0.71063875     1.49000
C1586       C  0.94111816  0.47331377  0.70367813     0.92600
O1587       O  0.88672713  0.47023504  0.63657870    -0.80900
O1588       O  0.82940684  0.38193280  0.65514516    -0.74500
Al1589     Al  0.87275213  0.46046398  0.67726076     1.90100
O1590       O  0.86642235  0.41568306  0.61013270    -0.73600
O1591       O  0.87632332  0.32919054  0.67783698    -0.73400
O1592       O  0.91315634  0.36617416  0.63362589    -0.79100
O1593       O  0.89745544  0.35570032  0.72656981    -0.77300
O1594       O  0.88819612  0.41059679  0.67839717    -1.13400
O1595       O  0.90506026  0.43090851  0.74498818    -0.72600
C1596       C  0.87895805  0.45074271  0.74561101     0.98100
C1597       C  0.87768405  0.45120730  0.60970349     0.94500
Al1598     Al  0.87248570  0.37562843  0.64675324     1.55600
O1599       O  0.91219874  0.48604524  0.69909739    -0.77200
C1600       C  0.88446743  0.32652311  0.70987233     0.98700
C1601       C  0.81433791  0.41480632  0.65008107     0.93600
O1602       O  0.82964596  0.44753261  0.65501542    -0.82500
O1603       O  0.63161610  0.45464499  0.52409139    -0.82000
C1604       C  0.55462435  0.35383453  0.59289057     0.97400
O1605       O  0.55417927  0.35391728  0.56120526    -0.71100
O1606       O  0.54432336  0.42891652  0.54626686    -0.74700
Al1607     Al  0.57410766  0.39223822  0.53421525     1.49000
C1608       C  0.54725158  0.46534201  0.53952545     0.92600
O1609       O  0.60230213  0.47163737  0.60634931    -0.80900
O1610       O  0.66301202  0.38586187  0.59264813    -0.74500
Al1611     Al  0.61668036  0.46075275  0.56606193     1.90100
O1612       O  0.62345238  0.41914421  0.63523727    -0.73600
O1613       O  0.62033927  0.32946116  0.57058055    -0.73400
O1614       O  0.57944809  0.36603231  0.61199853    -0.79100
O1615       O  0.60166883  0.35424070  0.52033804    -0.77300
O1616       O  0.60416037  0.40985768  0.56676702    -1.13400
O1617       O  0.58584240  0.42919581  0.00008206    -0.72600
C1618       C  0.60997325  0.45230634  0.99976269     0.98100
C1619       C  0.61111019  0.45433239  0.63410037     0.94500
Al1620     Al  0.62042850  0.37734206  0.60008755     1.55600
O1621       O  0.57510952  0.48138047  0.54399053    -0.77200
C1622       C  0.61557623  0.32636666  0.53832886     0.98700
C1623       C  0.67705933  0.41937933  0.59501275     0.93600
O1624       O  0.66077881  0.45141288  0.58856719    -0.82500
O1625       O  0.89015716  0.94660698  0.52671079    -0.82000
C1626       C  0.80963173  0.85176938  0.59539992     0.97400
O1627       O  0.80813394  0.85283142  0.56355570    -0.71100
O1628       O  0.80126795  0.92849686  0.54819327    -0.74700
Al1629     Al  0.82953753  0.88956706  0.53628234     1.49000
C1630       C  0.80590155  0.96449219  0.54123612     0.92600
O1631       O  0.86075518  0.96758827  0.60777151    -0.80900
O1632       O  0.91905425  0.87830668  0.59461607    -0.74500
Al1633     Al  0.87505027  0.95520544  0.56792438     1.90100
O1634       O  0.88023566  0.91474756  0.63726330    -0.73600
O1635       O  0.87379898  0.82418121  0.57223997    -0.73400
O1636       O  0.83501282  0.86304609  0.61399284    -0.79100
O1637       O  0.85527601  0.84995859  0.52220905    -0.77300
O1638       O  0.86046658  0.90535919  0.56878004    -1.13400
O1639       O  0.84426406  0.92743724  0.99924663    -0.72600
C1640       C  0.87010336  0.94725702  0.99840815     0.98100
C1641       C  0.86921960  0.95075934  0.63579783     0.94500
Al1642     Al  0.87591960  0.87229486  0.60198841     1.55600
O1643       O  0.83444643  0.97858639  0.54498454    -0.77200
C1644       C  0.86830737  0.82151465  0.53994842     0.98700
C1645       C  0.93392489  0.91119130  0.59822730     0.93600
O1646       O  0.91851290  0.94375053  0.59118048    -0.82500
O1647       O  0.61840669  0.95354618  0.72506199    -0.82000
C1648       C  0.69477055  0.85198175  0.65662127     0.97400
O1649       O  0.69613757  0.85272928  0.68848454    -0.71100
O1650       O  0.70595907  0.92798636  0.70355914    -0.74700
Al1651     Al  0.67621762  0.89126981  0.71570649     1.49000
C1652       C  0.70243529  0.96454545  0.70945269     0.92600
O1653       O  0.64687310  0.96934404  0.64259829    -0.80900
O1654       O  0.58655914  0.88411521  0.65851140    -0.74500
Al1655     Al  0.63290443  0.95925950  0.68311654     1.90100
O1656       O  0.62481567  0.91726320  0.61445197    -0.73600
O1657       O  0.63028127  0.82830303  0.68000887    -0.73400
O1658       O  0.66969860  0.86452069  0.63794402    -0.79100
O1659       O  0.64887465  0.85340804  0.73013012    -0.77300
O1660       O  0.64577274  0.90854391  0.68305465    -1.13400
O1661       O  0.66391207  0.92691844  0.75046996    -0.72600
C1662       C  0.63926875  0.94927062  0.75133688     0.98100
C1663       C  0.63664005  0.95258689  0.61495040     0.94500
Al1664     Al  0.62908665  0.87577381  0.65024917     1.55600
O1665       O  0.67437173  0.98032692  0.70467288    -0.77200
C1666       C  0.63499085  0.82567091  0.71222674     0.98700
C1667       C  0.57238197  0.91766243  0.65541357     0.93600
O1668       O  0.58860795  0.94972921  0.66102984    -0.82500
O1669       O  0.58697931  0.06528910  0.90940615    -0.82000
C1670       C  0.69846488  0.15426905  0.90708200     0.97400
O1671       O  0.67309523  0.14448674  0.88755701    -0.71100
O1672       O  0.62684844  0.09446085  0.86268351    -0.74700
Al1673     Al  0.63128239  0.13572647  0.89851233     1.49000
C1674       C  0.63651127  0.05799785  0.86373606     0.92600
O1675       O  0.66955733  0.02709726  0.95386180    -0.80900
O1676       O  0.66237495  0.07928417  0.49967968    -0.74500
Al1677     Al  0.62985294  0.05207943  0.93185430     1.90100
O1678       O  0.70425971  0.07613929  0.95275479    -0.73600
O1679       O  0.65162905  0.15677679  0.97880157    -0.73400
O1680       O  0.69907718  0.15234252  0.93867711    -0.79100
O1681       O  0.63340758  0.18293732  0.92883873    -0.77300
O1682       O  0.64551122  0.10162729  0.93170920    -1.13400
O1683       O  0.58742356  0.13063833  0.90427166    -0.72600
C1684       C  0.57210565  0.09798358  0.90179892     0.98100
C1685       C  0.69838972  0.03992118  0.95788978     0.94500
Al1686     Al  0.67660065  0.11603889  0.96474924     1.55600
O1687       O  0.64357957  0.04000518  0.89150100    -0.77200
C1688       C  0.63886678  0.18556692  0.96110521     0.98700
C1689       C  0.63676498  0.05918630  0.50055926     0.93600
O1690       O  0.61518405  0.05942444  0.97371493    -0.82500
O1691       O  0.92039045  0.05923042  0.84128097    -0.82000
C1692       C  0.81246713  0.15428021  0.84403520     0.97400
O1693       O  0.83818816  0.14369552  0.86273099    -0.71100
O1694       O  0.88333615  0.09190538  0.88740932    -0.74700
Al1695     Al  0.87890935  0.13261414  0.85072359     1.49000
C1696       C  0.87175544  0.05641493  0.88691769     0.92600
O1697       O  0.83605755  0.02516558  0.79834943    -0.80900
O1698       O  0.84517422  0.07811653  0.75170544    -0.74500
Al1699     Al  0.87671745  0.04824170  0.81930682     1.90100
O1700       O  0.80292615  0.07610354  0.79867000    -0.73600
O1701       O  0.85753645  0.15283801  0.77061883    -0.73400
O1702       O  0.81060117  0.15205359  0.81222176    -0.79100
O1703       O  0.87708216  0.17934665  0.81990705    -0.77300
O1704       O  0.86276000  0.09861550  0.81852135    -1.13400
O1705       O  0.92168210  0.12477449  0.84294871    -0.72600
C1706       C  0.93623217  0.09149487  0.84668505     0.98100
C1707       C  0.80754387  0.03943610  0.79407522     0.94500
Al1708     Al  0.83167039  0.11390584  0.78578127     1.55600
O1709       O  0.86268225  0.03898064  0.85940804    -0.77200
C1710       C  0.87053256  0.18178752  0.78770333     0.98700
C1711       C  0.87028212  0.05634578  0.75119574     0.93600
O1712       O  0.89127968  0.05319817  0.77742483    -0.82500
C1713       C  0.72543151  0.17270206  0.85750437    -0.12500
C1714       C  0.72804862  0.16517458  0.89249149     0.04500
C1715       C  0.75940434  0.16324484  0.91188619    -0.07800
C1716       C  0.78673968  0.16244000  0.89569061    -0.08500
C1717       C  0.78395103  0.16575710  0.86029566    -0.03100
C1718       C  0.75309814  0.17450705  0.84159915     0.03800
N1719       N  0.74960879  0.18679128  0.80699380     0.66300
H1720       H  0.70174252  0.17672151  0.84227551     0.15200
H1721       H  0.81027714  0.15776579  0.91106336     0.14900
N1722       N  0.76403443  0.16086453  0.94796140     0.74000
O1723       O  0.73591805  0.16403654  0.78393944    -0.39500
O1724       O  0.75470103  0.22299615  0.80015631    -0.39400
O1725       O  0.77374760  0.12850143  0.96267278    -0.40100
O1726       O  0.76420176  0.19274240  0.96498174    -0.40200
C1727       C  0.51911202  0.06213583  0.89169824    -0.12500
C1728       C  0.53686699  0.09726085  0.88814842     0.04500
C1729       C  0.52106706  0.12967924  0.86934724    -0.07800
C1730       C  0.98795048  0.12781708  0.86431804    -0.08500
C1731       C  0.97157515  0.09096411  0.85976005    -0.03100
C1732       C  0.98869436  0.05539216  0.87078498     0.03800
N1733       N  0.97335682  0.01698245  0.86742024     0.66300
H1734       H  0.53068408  0.03676289  0.90579592     0.15200
H1735       H  0.97540628  0.15564162  0.85647693     0.14900
N1736       N  0.53810249  0.16538818  0.86316055     0.74000
O1737       O  0.97383663  0.99663396  0.84096629    -0.39500
O1738       O  0.96444577  0.00067747  0.89284328    -0.39400
O1739       O  0.55029419  0.16837756  0.83642062    -0.40100
O1740       O  0.53580574  0.19619221  0.88094085    -0.40200
C1741       C  0.72329462  0.01316311  0.75333744    -0.12500
C1742       C  0.72993886  0.98585053  0.72872321     0.04500
C1743       C  0.76218009  0.97296117  0.72869363    -0.07800
C1744       C  0.78706563  0.98832610  0.75242662    -0.08500
C1745       C  0.78041683  0.01592876  0.77675452    -0.03100
C1746       C  0.74809041  0.02745120  0.77781973     0.03800
N1747       N  0.73996794  0.05228749  0.80436598     0.66300
H1748       H  0.69847497  0.02144056  0.75505809     0.15200
H1749       H  0.81186205  0.97976614  0.75085146     0.14900
N1750       N  0.77006595  0.94376297  0.70519268     0.74000
O1751       O  0.72395807  0.08417877  0.79715146    -0.39500
O1752       O  0.74252459  0.03819095  0.83392072    -0.39400
O1753       O  0.77972511  0.95524012  0.67851074    -0.40100
O1754       O  0.77491479  0.90786285  0.71483300    -0.40200
C1755       C  0.61744791  0.01026881  0.77652573    -0.12500
C1756       C  0.63758406  0.97583438  0.78088378     0.04500
C1757       C  0.65890012  0.97112049  0.81170033    -0.07800
C1758       C  0.65933950  0.99978196  0.83717238    -0.08500
C1759       C  0.63872452  0.03361764  0.83319534    -0.03100
C1760       C  0.61801126  0.03911104  0.80219072     0.03800
N1761       N  0.59695820  0.07319474  0.79655765     0.66300
H1762       H  0.60154170  0.01541683  0.75275574     0.15200
H1763       H  0.67560086  0.99485542  0.86077863     0.14900
N1764       N  0.67985625  0.93700299  0.81804697     0.74000
O1765       O  0.60644061  0.10444884  0.78325983    -0.39500
O1766       O  0.56745310  0.06976691  0.79948838    -0.39400
O1767       O  0.70973234  0.94084039  0.81699373    -0.40100
O1768       O  0.67010847  0.90631261  0.83189749    -0.40200
C1769       C  0.61631320  0.99779008  0.52641858    -0.12500
C1770       C  0.63440207  0.03373061  0.53053185     0.04500
C1771       C  0.65435597  0.04084761  0.56177029    -0.07800
C1772       C  0.65562909  0.01294157  0.58787602    -0.08500
C1773       C  0.63729144  0.97731209  0.58415810    -0.03100
C1774       C  0.61787542  0.96948991  0.55276372     0.03800
N1775       N  0.60021027  0.93279902  0.54698095     0.66300
H1776       H  0.60182599  0.99082593  0.50221690     0.15200
H1777       H  0.67108952  0.01973223  0.61157598     0.14900
N1778       N  0.67361730  0.07634036  0.56760539     0.74000
O1779       O  0.57160262  0.93047150  0.55319788    -0.39500
O1780       O  0.61398868  0.90187233  0.53779465    -0.39400
O1781       O  0.66264718  0.10629139  0.58144817    -0.40100
O1782       O  0.70342494  0.07478765  0.56546127    -0.40200
C1783       C  0.78268748  0.00469341  0.98782997    -0.12500
C1784       C  0.77863786  0.98624474  0.52200999     0.04500
C1785       C  0.74705073  0.98152394  0.52960404    -0.07800
C1786       C  0.72059498  0.99533958  0.50685547    -0.08500
C1787       C  0.72478743  0.01587701  0.97562797    -0.03100
C1788       C  0.75523533  0.01608701  0.96507131     0.03800
N1789       N  0.75800774  0.02584819  0.93083844     0.66300
H1790       H  0.80599087  0.00350459  0.97924344     0.15200
H1791       H  0.69657944  0.99401086  0.51382885     0.14900
N1792       N  0.74148044  0.96238601  0.56010049     0.74000
O1793       O  0.77525821  0.05499517  0.92438525    -0.39500
O1794       O  0.74264366  0.00562403  0.90688449    -0.39400
O1795       O  0.73673416  0.98358482  0.58491942    -0.40100
O1796       O  0.73408570  0.92565942  0.55951264    -0.40200
C1797       C  0.89084676  0.00906243  0.97430643    -0.12500
C1798       C  0.87268799  0.97327377  0.96907874     0.04500
C1799       C  0.85281541  0.96719790  0.93774387    -0.07800
C1800       C  0.85123305  0.99643449  0.91272715    -0.08500
C1801       C  0.86999691  0.03176992  0.91738085    -0.03100
C1802       C  0.88953097  0.03829260  0.94884947     0.03800
N1803       N  0.90794614  0.07426744  0.95548987     0.66300
H1804       H  0.90539003  0.01511143  0.99867250     0.15200
H1805       H  0.83573559  0.99052552  0.88885785     0.14900
N1806       N  0.83462809  0.93107313  0.93044551     0.74000
O1807       O  0.93784354  0.07405554  0.95373036    -0.39500
O1808       O  0.89582918  0.10373060  0.96889903    -0.39400
O1809       O  0.80428178  0.93173421  0.92952348    -0.40100
O1810       O  0.84741371  0.90189539  0.91736116    -0.40200
C1811       C  0.85133342  0.03794291  0.69136134    -0.12500
C1812       C  0.87223621  0.03003979  0.72157378     0.04500
C1813       C  0.89098296  0.99412610  0.72408142    -0.07800
C1814       C  0.88856011  0.96751905  0.69659078    -0.08500
C1815       C  0.86793270  0.97589575  0.66622709    -0.03100
C1816       C  0.84900927  0.01168600  0.66396169     0.03800
N1817       N  0.82725035  0.02223421  0.63387640     0.66300
H1818       H  0.83626750  0.06469900  0.68894730     0.15200
H1819       H  0.90352698  0.94068997  0.69879357     0.14900
N1820       N  0.91201561  0.98350038  0.75456343     0.74000
O1821       O  0.79790432  0.01181765  0.63061469    -0.39500
O1822       O  0.83571595  0.04811014  0.61398717    -0.39400
O1823       O  0.90239487  0.95900763  0.77485185    -0.40100
O1824       O  0.94173751  0.99224292  0.75790836    -0.40200
C1825       C  0.75408137  0.83684721  0.66114437    -0.12500
C1826       C  0.72347159  0.83989308  0.64090991     0.04500
C1827       C  0.72177578  0.83751082  0.60534708    -0.07800
C1828       C  0.75024947  0.83821907  0.59093222    -0.08500
C1829       C  0.78086328  0.84047078  0.61119476    -0.03100
C1830       C  0.78260617  0.83697508  0.64674857     0.03800
N1831       N  0.81308892  0.83463994  0.66879024     0.66300
H1832       H  0.75607927  0.83665740  0.68842303     0.15200
H1833       H  0.74817298  0.83913901  0.56364070     0.14900
N1834       N  0.69130984  0.83541142  0.58334009     0.74000
O1835       O  0.82585248  0.86615570  0.68235060    -0.39500
O1836       O  0.82386821  0.80081764  0.67964657    -0.39400
O1837       O  0.68058878  0.86578780  0.56618796    -0.40100
O1838       O  0.67824998  0.80165235  0.57654786    -0.40200
C1839       C  0.98639022  0.94798168  0.61337924    -0.12500
C1840       C  0.96902054  0.91181402  0.61288715     0.04500
C1841       C  0.98512407  0.87749686  0.62850617    -0.07800
C1842       C  0.51904562  0.88345837  0.64656582    -0.08500
C1843       C  0.53690892  0.91843118  0.64308082    -0.03100
C1844       C  0.52110794  0.95124001  0.62491217     0.03800
N1845       N  0.53818924  0.98731303  0.61987539     0.66300
H1846       H  0.97465381  0.97473361  0.60171629     0.15200
H1847       H  0.53057999  0.85793672  0.66050040     0.14900
N1848       N  0.96886031  0.83995788  0.62990214     0.74000
O1849       O  0.54830904  0.99297943  0.59223323    -0.39500
O1850       O  0.53749480  0.01633914  0.63994902    -0.39400
O1851       O  0.97347827  0.81223059  0.60975225    -0.40100
O1852       O  0.95515048  0.83204514  0.65498582    -0.40200
C1853       C  0.62618117  0.29465977  0.98516710    -0.12500
C1854       C  0.62424196  0.28981058  0.52004811     0.04500
C1855       C  0.63080241  0.25227608  0.53588783    -0.07800
C1856       C  0.62961589  0.21883120  0.01446373    -0.08500
C1857       C  0.63182917  0.22238910  0.97976413    -0.03100
C1858       C  0.63031679  0.26099999  0.96526968     0.03800
N1859       N  0.63420573  0.26683925  0.93083214     0.66300
H1860       H  0.62487480  0.32399293  0.97324839     0.14400
H1861       H  0.63096159  0.18951911  0.02642432     0.14900
N1862       N  0.63321621  0.24796423  0.57166873     0.74000
O1863       O  0.60949813  0.27157928  0.90851233    -0.39500
O1864       O  0.66195788  0.27447001  0.92382614    -0.39400
O1865       O  0.60968303  0.23369097  0.58396195    -0.40100
O1866       O  0.66051379  0.25141406  0.59017354    -0.40200
C1867       C  0.90151432  0.28248987  0.76017477    -0.12500
C1868       C  0.88079880  0.28893277  0.72907151     0.04500
C1869       C  0.85711285  0.25998770  0.71800904    -0.07800
C1870       C  0.85473310  0.22553260  0.73749973    -0.08500
C1871       C  0.87534112  0.21902933  0.76857311    -0.03100
C1872       C  0.89892256  0.24810579  0.77991157     0.03800
N1873       N  0.92100654  0.24275142  0.81074011     0.66300
H1874       H  0.92017368  0.30418865  0.76922971     0.15200
H1875       H  0.83570123  0.20423692  0.72860345     0.14900
N1876       N  0.83317078  0.26690352  0.68895540     0.74000
O1877       O  0.94607891  0.22142526  0.81095471    -0.39500
O1878       O  0.91866103  0.26490468  0.83575905    -0.39400
O1879       O  0.83486117  0.24819076  0.66193601    -0.40100
O1880       O  0.80687972  0.28365566  0.69279177    -0.40200
C1881       C  0.72962846  0.38366303  0.60839105    -0.12500
C1882       C  0.71252100  0.42010799  0.60730407     0.04500
C1883       C  0.72917343  0.45484798  0.62063167    -0.07800
C1884       C  0.76207532  0.45227853  0.63489104    -0.08500
C1885       C  0.77910123  0.41556702  0.63623507    -0.03100
C1886       C  0.76238467  0.38101320  0.62240525     0.03800
N1887       N  0.77812151  0.34292293  0.62156613     0.66300
H1888       H  0.71751247  0.35658601  0.59813011     0.15200
H1889       H  0.77429201  0.47930673  0.64509453     0.14900
N1890       N  0.71298089  0.49269870  0.62083893     0.74000
O1891       O  0.76785502  0.31350033  0.63661697    -0.39500
O1892       O  0.79534688  0.33634795  0.59898661    -0.39400
O1893       O  0.70213902  0.50375404  0.64700614    -0.40100
O1894       O  0.71463091  0.51771560  0.59749775    -0.40200
C1895       C  0.99666802  0.34757207  0.58648690    -0.12500
C1896       C  0.52503797  0.34293672  0.60747722     0.04500
C1897       C  0.52570602  0.33746323  0.64265934    -0.07800
C1898       C  0.49664153  0.33722037  0.65616964    -0.08500
C1899       C  0.96856385  0.34766807  0.63559461    -0.03100
C1900       C  0.96770619  0.34900408  0.60003152     0.03800
N1901       N  0.93793896  0.35422287  0.57724143     0.66300
H1902       H  0.99551964  0.35149819  0.55946563     0.15200
H1903       H  0.49794366  0.33510589  0.68332463     0.14900
N1904       N  0.55567995  0.33245698  0.66515098     0.74000
O1905       O  0.93062545  0.38836202  0.56447099    -0.39500
O1906       O  0.92263477  0.32372094  0.56479499    -0.39400
O1907       O  0.56747352  0.36147342  0.68323860    -0.40100
O1908       O  0.56686631  0.29754847  0.67156741    -0.40200
C1909       C  0.86167797  0.74791919  0.53097137    -0.12500
C1910       C  0.87382249  0.78446609  0.52121029     0.04500
C1911       C  0.88694950  0.78866857  0.98896856    -0.07800
C1912       C  0.88467469  0.75528597  0.96727616    -0.08500
C1913       C  0.86844505  0.72046081  0.97469864    -0.03100
C1914       C  0.85945556  0.71447331  0.50942451     0.03800
N1915       N  0.84575824  0.67819084  0.51994862     0.66300
H1916       H  0.85242464  0.74581557  0.55468212     0.15200
H1917       H  0.89690117  0.75596465  0.94537927     0.14900
N1918       N  0.90404767  0.82339061  0.98055708     0.74000
O1919       O  0.86248016  0.65581552  0.54154744    -0.39500
O1920       O  0.80566414  0.68439712  0.00042136    -0.39400
O1921       O  0.92766135  0.82854081  0.48420683    -0.40100
O1922       O  0.89050460  0.84738013  0.95823733    -0.40200
C1923       C  0.89318163  0.46321682  0.80723034    -0.12500
C1924       C  0.87517940  0.47440834  0.77612786     0.04500
C1925       C  0.85743214  0.51098159  0.77404810    -0.07800
C1926       C  0.85899991  0.53593764  0.80244746    -0.08500
C1927       C  0.87725362  0.52489430  0.83354690    -0.03100
C1928       C  0.89397137  0.48738208  0.83583657     0.03800
N1929       N  0.91155848  0.47272154  0.86708249     0.66300
H1930       H  0.90689557  0.43536597  0.80944323     0.15200
H1931       H  0.84538741  0.56384640  0.80019499     0.14900
N1932       N  0.83844685  0.52403993  0.74306069     0.74000
O1933       O  0.89761642  0.44954866  0.88512427    -0.39500
O1934       O  0.94204766  0.47583356  0.87293693    -0.39400
O1935       O  0.80833433  0.51733269  0.73770397    -0.40100
O1936       O  0.85038086  0.54843725  0.72433794    -0.40200
C1937       C  0.90278612  0.52691568  0.54986275    -0.12500
C1938       C  0.87418695  0.53154250  0.52635610     0.04500
C1939       C  0.84745271  0.50636122  0.52903286    -0.07800
C1940       C  0.84990334  0.47733175  0.55474717    -0.08500
C1941       C  0.87842186  0.47342059  0.57824730    -0.03100
C1942       C  0.90509341  0.49833039  0.57550601     0.03800
N1943       N  0.93474570  0.49508984  0.59887368     0.66300
H1944       H  0.92400801  0.54493357  0.54803166     0.15200
H1945       H  0.82883733  0.45946199  0.55755084     0.14900
N1946       N  0.81729502  0.51087145  0.50679188     0.74000
O1947       O  0.95699673  0.47221699  0.59214402    -0.39500
O1948       O  0.94104623  0.52052608  0.62230683    -0.39400
O1949       O  0.81201493  0.48270774  0.98152314    -0.40100
O1950       O  0.79562894  0.53057103  0.01189417    -0.40200
C1951       C  0.99381983  0.54376568  0.99390296    -0.12500
C1952       C  0.96664729  0.52037692  0.98093979     0.04500
C1953       C  0.96688580  0.47683911  0.48375585    -0.07800
C1954       C  0.49133026  0.46269557  0.50832845    -0.08500
C1955       C  0.51899808  0.48583194  0.52030267    -0.03100
C1956       C  0.51573850  0.52757249  0.01733407     0.03800
N1957       N  0.54147966  0.55316045  0.03236043     0.66300
H1958       H  0.99497690  0.57512966  0.98731471     0.15200
H1959       H  0.48931498  0.43184543  0.51682538     0.14900
N1960       N  0.94174441  0.45104069  0.46773377     0.74000
O1961       O  0.53709105  0.57563988  0.05654451    -0.39500
O1962       O  0.56433813  0.56086386  0.01623889    -0.39400
O1963       O  0.94770466  0.42700600  0.44518137    -0.40100
O1964       O  0.91681622  0.44570457  0.48129549    -0.40200
C1965       C  0.61535244  0.75723014  0.78189831    -0.12500
C1966       C  0.62208119  0.71942112  0.76951083     0.04500
C1967       C  0.63179471  0.71665180  0.73730975    -0.07800
C1968       C  0.63388106  0.75133751  0.71790039    -0.08500
C1969       C  0.62686116  0.78914950  0.73016814    -0.03100
C1970       C  0.61739937  0.79189115  0.76249864     0.03800
N1971       N  0.60842305  0.82959239  0.77537852     0.66300
H1972       H  0.60684824  0.75972466  0.80598880     0.15200
H1973       H  0.64237128  0.74884862  0.69380497     0.14900
N1974       N  0.64080655  0.67887929  0.72455274     0.74000
O1975       O  0.58060004  0.84397887  0.76503229    -0.39500
O1976       O  0.62554965  0.84442469  0.80117823    -0.39400
O1977       O  0.62311723  0.66316408  0.69952106    -0.40100
O1978       O  0.66882713  0.66484252  0.73450785    -0.40200
C1979       C  0.63001073  0.53831197  0.94326438    -0.12500
C1980       C  0.60591835  0.53337103  0.91498915     0.04500
C1981       C  0.58368045  0.50133331  0.91472510    -0.07800
C1982       C  0.58680006  0.47416437  0.94162678    -0.08500
C1983       C  0.61127218  0.47838516  0.96979400    -0.03100
C1984       C  0.63286867  0.51135589  0.97055397     0.03800
N1985       N  0.65765645  0.51837162  0.99888633     0.66300
H1986       H  0.64748114  0.56239247  0.94373573     0.15200
H1987       H  0.56917354  0.45021221  0.94074577     0.14900
N1988       N  0.55718350  0.49646162  0.88760309     0.74000
O1989       O  0.68495060  0.50154800  0.00018563    -0.39500
O1990       O  0.65436123  0.54662396  0.01903269    -0.39400
O1991       O  0.55745902  0.46778873  0.86708445    -0.40100
O1992       O  0.53134853  0.51618085  0.88776919    -0.40200
C1993       C  0.58662623  0.53564620  0.69097803    -0.12500
C1994       C  0.61195046  0.53394344  0.71857959     0.04500
C1995       C  0.63576659  0.50329427  0.71910129    -0.07800
C1996       C  0.63386958  0.47568968  0.69245525    -0.08500
C1997       C  0.60886716  0.47808116  0.66476973    -0.03100
C1998       C  0.58485116  0.50829674  0.66435476     0.03800
N1999       N  0.55846159  0.51184481  0.63689735     0.66300
H2000       H  0.56756695  0.55797122  0.69015763     0.15200
H2001       H  0.65289044  0.45338786  0.69276079     0.14900
N2002       N  0.66235363  0.49986857  0.74620626     0.74000
O2003       O  0.53220140  0.49379872  0.63833089    -0.39500
O2004       O  0.55908606  0.53894923  0.61497857    -0.39400
O2005       O  0.66179707  0.47323168  0.76854042    -0.40100
O2006       O  0.68867376  0.51735065  0.74390671    -0.40200
C2007       C  0.72346019  0.62309842  0.87542222    -0.12500
C2008       C  0.70922018  0.58843302  0.85954750     0.04500
C2009       C  0.72856517  0.55357634  0.85914159    -0.07800
C2010       C  0.76145708  0.55441971  0.87373728    -0.08500
C2011       C  0.77566407  0.58942670  0.88907033    -0.03100
C2012       C  0.75608097  0.62386284  0.89014637     0.03800
N2013       N  0.76855529  0.65960474  0.90709096     0.66300
H2014       H  0.70907106  0.64997845  0.87700256     0.15200
H2015       H  0.77611479  0.52773807  0.87231482     0.14900
N2016       N  0.71565690  0.51750024  0.84315323     0.74000
O2017       O  0.77750339  0.68827867  0.89017347    -0.39500
O2018       O  0.76392465  0.66576019  0.93700008    -0.39400
O2019       O  0.72185749  0.50877409  0.81423913    -0.40100
O2020       O  0.70485262  0.49067498  0.86060237    -0.40200
C2021       C  0.52489180  0.65840632  0.89239737    -0.12500
C2022       C  0.52248731  0.66716464  0.85773537     0.04500
C2023       C  0.49183076  0.67900252  0.84003911    -0.07800
C2024       C  0.96234668  0.67051036  0.85575019    -0.08500
C2025       C  0.96481596  0.66478275  0.89097105    -0.03100
C2026       C  0.99601426  0.66647415  0.91077671     0.03800
N2027       N  0.00039085  0.66542249  0.94687000     0.66300
H2028       H  0.54803817  0.64986927  0.90702512     0.15200
H2029       H  0.93868485  0.67159732  0.84004147     0.14900
N2030       N  0.48836205  0.69421866  0.80622735     0.74000
O2031       O  0.51393271  0.60730322  0.94835358    -0.39500
O2032       O  0.99606339  0.69719433  0.96271943    -0.39400
O2033       O  0.97305684  0.65880513  0.78328096    -0.40100
O2034       O  0.50313595  0.72589729  0.80055424    -0.40200
C2035       C  0.95945651  0.51861042  0.75109857    -0.12500
C2036       C  0.96712010  0.49643840  0.72365421     0.04500
C2037       C  0.99980914  0.48799714  0.72161675    -0.07800
C2038       C  0.52536628  0.48705613  0.75083958    -0.08500
C2039       C  0.51822629  0.52293800  0.76637855    -0.03100
C2040       C  0.48759821  0.54137229  0.75639292     0.03800
N2041       N  0.47910761  0.57867082  0.77025835     0.66300
H2042       H  0.93432592  0.52363628  0.75378451     0.15200
H2043       H  0.54901860  0.47301144  0.75723238     0.14900
N2044       N  0.00869319  0.46739395  0.69316937     0.74000
O2045       O  0.95581134  0.58071217  0.80187031    -0.39500
O2046       O  0.46409904  0.57859751  0.79519149    -0.39400
O2047       O  0.01121125  0.48688219  0.66669906    -0.40100
O2048       O  0.50959727  0.40000360  0.72700374    -0.40200
loop_ 
_geom_bond_atom_site_label_1 
_geom_bond_atom_site_label_2 
_geom_bond_distance 
_geom_bond_site_symmetry_2 
_ccdc_geom_bond_type 
O1           C16   1.269       .  A
O1           Al9   1.953       .  S
C2           O12   1.269       .  A
C2            O3   1.258       .  A
C2          C486   1.498       .  S
O3           Al5   1.876       .  S
O4            C6   1.274       .  A
O4           Al5   1.970       .  S
Al5          O13   1.967       .  S
Al5          O15   1.888       .  S
Al5          O14   1.768       .  S
C6           O19   1.254       .  A
C6          C444   1.468       .  S
O7           C17   1.268       .  A
O7           Al9   1.944       .  S
O8           C21   1.275       .  A
O8          Al18   1.956       .  S
Al9          O22   1.878       .  S
Al9          O19   1.850       .  S
Al9          O14   1.775       .  S
O10          C17   1.251       .  A
O10         Al18   1.868       .  S
O11          C20   1.255       .  A
O11         Al18   1.866       .  S
O12         Al18   1.956       .  S
O13          C20   1.276       .  A
O14         Al18   1.768       .  S
O15          C16   1.262       .  A
C16         C472   1.488       .  S
C17         C503   1.474       .  S
C20         C430   1.484       .  S
C21          O22   1.260       .  A
C21         C458   1.484       .  S
O23          C38   1.268       .  A
O23         Al31   1.940       .  S
C24          O34   1.265       .  A
C24          O25   1.259       .  A
C24         C489   1.498       .  S
O25         Al27   1.896       .  S
O26          C28   1.279       .  A
O26         Al27   1.986       .  S
Al27         O35   1.996       .  S
Al27         O37   1.897       .  S
Al27         O36   1.763       .  S
C28          O41   1.254       .  A
C28         C391   1.481       .  S
O29          C39   1.266       .  A
O29         Al31   1.950       .  S
O30          C43   1.272       .  A
O30        Al552   1.945       .  S
Al31         O44   1.893       .  S
Al31         O41   1.857       .  S
Al31         O36   1.780       .  S
O32          C39   1.253       .  A
O32         Al40   1.859       .  S
O33          C42   1.254       .  A
O33         Al40   1.859       .  S
O34         Al40   1.943       .  S
O35          C42   1.282       .  A
O36         Al40   1.760       .  S
O37          C38   1.262       .  A
C38         C475   1.488       .  S
C39         C416   1.470       .  S
Al40        O542   1.939       .  S
C42         C377   1.488       .  S
C43         O556   1.262       .  A
C43         C402   1.488   1_556  S
O44         C555   1.262       .  A
O45          C60   1.260       .  A
O45         Al53   1.883       .  S
C46          O56   1.256       .  A
C46          O47   1.271       .  A
C46         C363   1.498       .  S
O47         Al49   1.951       .  S
O48          C50   1.248       .  A
O48         Al49   1.860       .  S
Al49         O57   1.858       .  S
Al49         O59   1.975       .  S
Al49         O58   1.760       .  S
C50          O63   1.268       .  A
C50         C500   1.467       .  S
O51          C61   1.253       .  A
O51         Al53   1.848       .  S
O52          C65   1.262       .  A
O52         Al62   1.887       .  S
Al53         O66   1.926       .  S
Al53         O63   1.931       .  S
Al53         O58   1.767       .  S
O54          C61   1.277       .  A
O54         Al62   1.988       .  S
O55          C64   1.280       .  A
O55         Al62   1.993       .  S
O56         Al62   1.883       .  S
O57          C64   1.256       .  A
O58         Al62   1.767       .  S
O59          C60   1.277       .  A
C60         C388   1.494       .  S
C61         C405   1.477       .  S
C64         C332   1.501       .  S
C65          O66   1.266       .  A
C65         C349   1.470       .  S
O67         C594   1.259       .  A
O67         Al75   1.886       .  S
C68          O78   1.253       .  A
C68          O69   1.267       .  A
C68         C360   1.493       .  S
O69         Al71   1.946       .  S
O70          C72   1.252       .  A
O70         Al71   1.854       .  S
Al71         O79   1.853       .  S
Al71        O593   1.956       .  S
Al71         O80   1.762       .  S
C72          O85   1.270       .  A
C72         C419   1.467       .  S
O73          C83   1.252       .  A
O73         Al75   1.840       .  S
O74          C87   1.258       .  A
O74         Al84   1.874       .  S
Al75         O88   1.931       .  S
Al75         O85   1.949       .  S
Al75         O80   1.775       .  S
O76          C83   1.277       .  A
O76         Al84   1.975       .  S
O77          C86   1.281       .  A
O77         Al84   1.990       .  S
O78         Al84   1.878       .  S
O79          C86   1.257       .  A
O80         Al84   1.765       .  S
O81          C82   1.272       .  A
O81        Al583   1.953       .  S
C82         O579   1.257       .  A
C82         C447   1.482       .  S
C83         C461   1.485       .  S
C86         C318   1.495       .  S
C87          O88   1.266       .  A
C87         C346   1.473       .  S
O89         C616   1.260   1_554  A
O89         Al97   1.880       .  S
C90         O100   1.255       .  A
C90          O91   1.268       .  A
C90         C293   1.498       .  S
O91         Al93   1.947       .  S
O92          C94   1.252       .  A
O92         Al93   1.867       .  S
Al93        O101   1.853       .  S
Al93        O615   1.951       .  S
Al93        O102   1.763       .  S
C94         O107   1.265       .  A
C94         C248   1.451       .  S
O95         C105   1.255       .  A
O95         Al97   1.847       .  S
O96         C109   1.260       .  A
O96        Al106   1.894       .  S
Al97        O110   1.923       .  S
Al97        O107   1.943       .  S
Al97        O102   1.775       .  S
O98         C105   1.279       .  A
O98        Al106   1.982       .  S
O99         C108   1.280       .  A
O99        Al106   1.991       .  S
O100       Al106   1.886       .  S
O101        C108   1.253       .  A
O102       Al106   1.767       .  S
O103        C104   1.273       .  A
O103       Al605   1.959       .  S
C104        O601   1.260       .  A
C104        C262   1.482       .  S
C105        C279   1.484       .  S
C108        C374   1.482       .  S
C109        O110   1.264       .  A
C109        C304   1.485       .  S
O111        C126   1.262       .  A
O111       Al119   1.889       .  S
C112        O122   1.255       .  A
C112        O113   1.270       .  A
C112        C290   1.501       .  S
O113       Al115   1.959       .  S
O114        C116   1.251       .  A
O114       Al115   1.859       .  S
Al115       O123   1.858       .  S
Al115       O125   1.971       .  S
Al115       O124   1.767       .  S
C116        O129   1.271       .  A
C116        C206   1.466       .  S
O117        C127   1.256       .  A
O117       Al119   1.855       .  S
O118        C131   1.259       .  A
O118       Al128   1.875       .  S
Al119       O132   1.955       .  S
Al119       O129   1.950       .  S
Al119       O124   1.772       .  S
O120        C127   1.276       .  A
O120       Al128   1.974       .  S
O121        C130   1.278       .  A
O121       Al128   1.980       .  S
O122       Al128   1.879       .  S
O123        C130   1.256       .  A
O124       Al128   1.765       .  S
O125        C126   1.274       .  A
C126        C220   1.496       .  S
C127        C237   1.491       .  S
C130        C433   1.484       .  S
C131        O132   1.269       .  A
C131        C307   1.493       .  S
O133        C148   1.264       .  A
O133       Al141   1.921       .  S
C134        O144   1.264       .  A
C134        O135   1.256       .  A
C134        C178   1.488       .  S
O135       Al137   1.880       .  S
O136        C138   1.280       .  A
O136       Al137   1.992       .  S
Al137       O145   1.997       .  S
Al137       O147   1.888       .  S
Al137       O146   1.768       .  S
C138        O151   1.255       .  A
C138        C223   1.491       .  S
O139        C149   1.264       .  A
O139       Al141   1.928       .  S
O140        C153   1.271       .  A
O140       Al662   1.950   1_554  S
Al141       O154   1.887       .  S
Al141       O151   1.852       .  S
Al141       O146   1.776       .  S
O142        C149   1.254       .  A
O142       Al150   1.867       .  S
O143        C152   1.256       .  A
O143       Al150   1.857       .  S
O144       Al150   1.937       .  S
O145        C152   1.282       .  A
O146       Al150   1.767       .  S
O147        C148   1.260       .  A
C148        C192   1.486       .  S
C149        C251   1.444       .  S
Al150       O652   1.945       .  S
C152        C321   1.496       .  S
C153        O666   1.262   1_554  A
C153        C234   1.488       .  S
O154        C665   1.262       .  A
O155        C170   1.264       .  A
O155       Al163   1.926       .  S
C156        O166   1.266       .  A
C156        O157   1.254       .  A
C156        C181   1.491       .  S
O157       Al159   1.872       .  S
O158        C160   1.281       .  A
O158       Al159   2.002       .  S
Al159       O167   1.998       .  S
Al159       O169   1.883       .  S
Al159       O168   1.768       .  S
C160        O173   1.251       .  A
C160        C265   1.491       .  S
O161        C171   1.267       .  A
O161       Al163   1.936       .  S
O162        C175   1.276       .  A
O162       Al172   1.963       .  S
Al163       O176   1.880       .  S
Al163       O173   1.823       .  S
Al163       O168   1.771       .  S
O164        C171   1.253       .  A
O164       Al172   1.871       .  S
O165        C174   1.256       .  A
O165       Al172   1.851       .  S
O166       Al172   1.946       .  S
O167        C174   1.283       .  A
O168       Al172   1.763       .  S
O169        C170   1.259       .  A
C170        C195   1.484       .  S
C171        C209   1.462       .  S
C174        C335   1.502       .  S
C175        O176   1.260       .  A
C175        C276   1.488       .  S
C177        C178   1.408       .  A
C177        C182   1.402       .  A
C177        H184   1.084       .  S
C178        C179   1.412       .  A
C179        C180   1.402       .  A
C179        N186   1.431       .  S
C180        C181   1.410       .  A
C180        H185   1.084       .  S
C181        C182   1.411       .  A
C182        N183   1.429       .  S
N183        O187   1.261       .  A
N183        O188   1.262       .  A
N186        O190   1.262       .  A
N186        O189   1.262       .  A
C191        C192   1.407       .  A
C191       C1220   1.401   1_455  A
C191        H198   1.084       .  S
C192        C193   1.414       .  A
C193       C1218   1.397   1_455  A
C193        N200   1.429       .  S
C194        C195   1.405       .  A
C194       C1217   1.398       .  A
C194        H199   1.084       .  S
C195        C196   1.414       .  A
C196       C1215   1.399       .  A
C196        N197   1.429       .  S
N197        O201   1.262   1_545  A
N197        O202   1.262       .  A
N200        O204   1.262       .  A
N200        O203   1.262       .  A
C205        C206   1.402   1_545  A
C205        C210   1.393       .  A
C205        H212   1.084       .  S
C206        C207   1.415       .  A
C207        C208   1.391       .  A
C207        N214   1.429       .  S
C208        C209   1.399   1_565  A
C208        H213   1.084       .  S
C209        C210   1.410       .  A
C210        N211   1.431       .  S
N211        O215   1.261       .  A
N211        O216   1.262       .  A
N214        O218   1.261       .  A
N214        O217   1.261       .  A
C219        C220   1.413   1_545  A
C219        C224   1.407       .  A
C219        H226   1.083       .  S
C220        C221   1.412       .  A
C221        C222   1.402       .  A
C221        N228   1.429       .  S
C222        C223   1.411   1_565  A
C222        H227   1.084       .  S
C223        C224   1.407       .  A
C224        N225   1.428       .  S
N225        O229   1.262       .  A
N225        O230   1.262       .  A
N228        O232   1.262       .  A
N228        O231   1.262       .  A
C233        C234   1.411   1_565  A
C233        C238   1.407       .  A
C233        H240   1.083       .  S
C234        C235   1.408       .  A
C235        C236   1.397       .  A
C235        N242   1.430       .  S
C236        C237   1.411   1_545  A
C236        H241   1.084       .  S
C237        C238   1.410       .  A
C238        N239   1.429       .  S
N239        O243   1.262       .  A
N239        O244   1.262       .  A
N242        O246   1.262       .  A
N242        O245   1.262       .  A
C247        C252   1.394       .  A
C247        C760   1.405   1_545  A
C247        H254   1.084   1_545  S
C248        C249   1.406       .  A
C248        C759   1.406   1_564  A
C249        C250   1.388   1_565  A
C249        N256   1.429       .  S
C250        C763   1.397   1_554  A
C250        H255   1.084       .  S
C251        C252   1.402       .  A
C251        C762   1.397       .  A
C252        N253   1.431       .  S
N253        O257   1.261       .  A
N253        O258   1.262   1_545  A
N256        O260   1.262       .  A
N256        O259   1.262   1_565  A
C261        C262   1.414   1_545  A
C261        C266   1.408       .  A
C261        H268   1.084       .  S
C262        C263   1.403       .  A
C263        C264   1.392       .  A
C263        N270   1.430       .  S
C264        C265   1.415   1_565  A
C264        H269   1.084       .  S
C265        C266   1.406       .  A
C266        N267   1.427       .  S
N267        O271   1.262       .  A
N267        O272   1.262       .  A
N270        O274   1.262       .  A
N270        O273   1.262       .  A
C275        C276   1.399       .  A
C275        C280   1.396       .  A
C275        H282   1.084       .  S
C276        C277   1.422   1_545  A
C277        C278   1.405       .  A
C277        N284   1.429       .  S
C278        C279   1.400       .  A
C278        H283   1.084       .  S
C279        C280   1.418   1_565  A
C280        N281   1.429       .  S
N281        O285   1.260       .  A
N281        O286   1.262       .  A
N284        O288   1.262   1_565  A
N284        O287   1.262       .  A
C289        C290   1.404       .  A
C289        C294   1.408       .  A
C289        H296   1.083       .  S
C290        C291   1.420       .  A
C291        C292   1.404       .  A
C291        N298   1.429       .  S
C292        C293   1.403       .  A
C292        H297   1.084       .  S
C293        C294   1.420       .  A
C294        N295   1.430       .  S
N295        O299   1.262       .  A
N295        O300   1.262       .  A
N298        O302   1.262       .  A
N298        O301   1.262       .  A
C303        C304   1.408       .  A
C303       C1332   1.403       .  A
C303        H310   1.084       .  S
C304        C305   1.410       .  A
C305       C1330   1.396       .  A
C305        N312   1.429       .  S
C306        C307   1.407       .  A
C306       C1329   1.397   1_455  A
C306        H311   1.084       .  S
C307        C308   1.414       .  A
C308       C1327   1.407   1_455  A
C308        N309   1.428       .  S
N309        O313   1.262   1_565  A
N309        O314   1.262   1_565  A
N312        O316   1.262       .  A
N312        O315   1.262       .  A
C317        C322   1.406       .  A
C317        C830   1.414       .  A
C317        H324   1.084       .  S
C318        C319   1.407       .  A
C318        C829   1.415   1_554  A
C319        C832   1.404       .  A
C319        N326   1.428       .  S
C320        C321   1.414       .  A
C320        C831   1.406       .  A
C320        H325   1.084       .  S
C321        C322   1.408       .  A
C322        N323   1.429       .  S
N323        O327   1.262       .  A
N323        O328   1.262       .  A
N326        O330   1.262       .  A
N326        O329   1.262       .  A
C331        C332   1.417       .  A
C331        C336   1.406       .  A
C331        H338   1.083       .  S
C332        C333   1.407       .  A
C333        C334   1.406       .  A
C333        N340   1.429       .  S
C334        C335   1.418       .  A
C334        H339   1.083       .  S
C335        C336   1.407       .  A
C336        N337   1.428       .  S
N337        O341   1.262       .  A
N337        O342   1.262       .  A
N340        O344   1.261       .  A
N340        O343   1.262       .  A
C345        C346   1.404       .  A
C345        C350   1.395       .  A
C345        H352   1.084       .  S
C346        C347   1.408       .  A
C347        C348   1.399       .  A
C347        N354   1.425       .  S
C348        C349   1.403       .  A
C348        H353   1.084       .  S
C349        C350   1.407       .  A
C350        N351   1.429       .  S
N351        O355   1.262       .  A
N351        O356   1.261       .  A
N354        O358   1.261       .  A
N354        O357   1.262       .  A
C359        C364   1.403       .  A
C359       C1384   1.403       .  A
C359        H366   1.084       .  S
C360        C361   1.418       .  A
C360       C1383   1.403   1_455  A
C361        C362   1.403   1_455  A
C361        N368   1.429       .  S
C362       C1387   1.403       .  A
C362        H367   1.083       .  S
C363        C364   1.421       .  A
C363       C1386   1.406       .  A
C364        N365   1.430       .  S
N365        O369   1.261       .  A
N365        O370   1.261       .  A
N368        O372   1.262       .  A
N368        O371   1.262       .  A
C373        C374   1.400       .  A
C373        C378   1.406       .  A
C373        H380   1.084       .  S
C374        C887   1.415   1_554  A
C375        C376   1.405       .  A
C375        C886   1.417       .  A
C375        N382   1.428       .  S
C376        C377   1.400       .  A
C376        H381   1.084       .  S
C377        C890   1.419       .  A
C378        C889   1.416   1_554  A
C378        N379   1.429       .  S
N379        O383   1.262       .  A
N379        O896   1.261       .  A
N382        O386   1.260       .  A
N382        O897   1.262       .  A
O384        N891   1.262       .  A
O385        N894   1.261       .  A
C387        C388   1.405       .  A
C387        C392   1.402       .  A
C387        H394   1.084       .  S
C388        C389   1.420       .  A
C389        C390   1.407       .  A
C389        N396   1.429       .  S
C390        C391   1.400       .  A
C390        H395   1.084       .  S
C391        C392   1.414       .  A
C392        N393   1.431       .  S
N393        O397   1.262       .  A
N393        O398   1.261       .  A
N396        O400   1.262       .  A
N396        O399   1.262       .  A
C401        C402   1.404       .  A
C401        C406   1.394       .  A
C401        H408   1.084       .  S
C402        C403   1.416       .  A
C403        C404   1.409       .  A
C403        N410   1.428       .  S
C404        C405   1.404       .  A
C404        H409   1.084       .  S
C405        C406   1.414       .  A
C406        N407   1.432       .  S
N407        O411   1.262       .  A
N407        O412   1.262       .  A
N410        O926   1.262       .  A
N410        O925   1.262   1_554  A
O413        N922   1.262       .  A
O414        N922   1.262       .  A
C415        C416   1.404       .  A
C415       C1444   1.384       .  A
C415        H422   1.102       .  S
C416        C929   1.407       .  A
C417        C928   1.403       .  A
C417       C1442   1.393   1_556  A
C417        N424   1.429       .  S
C418        C419   1.411   1_655  A
C418       C1441   1.392   1_554  A
C418        H423   1.084       .  S
C419        C932   1.403       .  A
C420       C1439   1.385   1_455  A
C420        C931   1.402       .  A
C420        N421   1.429       .  S
N421        O425   1.261       .  A
N421        O426   1.262       .  A
N424        O428   1.262       .  A
N424        O427   1.262       .  A
C429        C430   1.399       .  A
C429        C434   1.401       .  A
C429        H436   1.084       .  S
C430        C431   1.418       .  A
C431        C432   1.405       .  A
C431        N438   1.429       .  S
C432        C433   1.400       .  A
C432        H437   1.084       .  S
C433        C434   1.417       .  A
C434        N435   1.430       .  S
N435        O439   1.262       .  A
N435        O440   1.261       .  A
N438        O442   1.262       .  A
N438        O441   1.262       .  A
C443        C444   1.400       .  A
C443        C448   1.404       .  A
C443        H450   1.084       .  S
C444        C445   1.410       .  A
C445        C446   1.394       .  A
C445        N452   1.430       .  S
C446        C447   1.404       .  A
C446        H451   1.084       .  S
C447        C448   1.417       .  A
C448        N449   1.429       .  S
N449        O453   1.262       .  A
N449        O454   1.262       .  A
N452        O456   1.261       .  A
N452        O455   1.262       .  A
C457        C458   1.397       .  A
C457        C462   1.394       .  A
C457        H464   1.084       .  S
C458        C459   1.421       .  A
C459        C460   1.404       .  A
C459        N466   1.428       .  S
C460        C461   1.399       .  A
C460        H465   1.084       .  S
C461        C462   1.421       .  A
C462        N463   1.429       .  S
N463        O467   1.262       .  A
N463        O468   1.261       .  A
N466        O470   1.261       .  A
N466        O469   1.262       .  A
C471        C472   1.406       .  A
C471        C476   1.400       .  A
C471        H478   1.084       .  S
C472        C473   1.412       .  A
C473        C474   1.406       .  A
C473        N480   1.427       .  S
C474        C475   1.407       .  A
C474        H479   1.084       .  S
C475        C476   1.411       .  A
C476        N477   1.429       .  S
N477        O481   1.262       .  A
N477        O482   1.262       .  A
N480        O484   1.262       .  A
N480        O483   1.262       .  A
C485        C486   1.406       .  A
C485       C1514   1.400   1_455  A
C485        H492   1.084       .  S
C486        C487   1.414   1_455  A
C487       C1512   1.412       .  A
C487        N494   1.433       .  S
C488        C489   1.410       .  A
C488       C1511   1.409       .  A
C488        H493   1.083       .  S
C489        C490   1.415       .  A
C490       C1509   1.403       .  A
C490        N491   1.431       .  S
N491       O1519   1.262       .  A
N491        O496   1.262       .  A
N494        O498   1.262   1_655  A
N494       O1521   1.262       .  A
O495       N1515   1.261       .  A
O497       N1518   1.262       .  A
C499        C500   1.395       .  A
C499       C1528   1.387       .  A
C499        H506   1.084       .  S
C500        C501   1.417       .  A
C501       C1526   1.394       .  A
C501        N508   1.431       .  S
C502        C503   1.401       .  A
C502       C1525   1.393       .  A
C502        H507   1.084       .  S
C503        C504   1.416   1_455  A
C504       C1523   1.394       .  A
C504        N505   1.428       .  S
N505       O1533   1.261       .  A
N505        O510   1.261       .  A
N508       O1536   1.262       .  A
N508        O511   1.261       .  A
O509       N1529   1.262       .  A
O512       N1532   1.262       .  A
O513        C528   1.269       .  A
O513       Al521   1.946       .  S
C514        O524   1.269       .  A
C514        O515   1.258       .  A
C514        C998   1.496       .  S
O515       Al517   1.877       .  S
O516        C518   1.272       .  A
O516       Al517   1.964       .  S
Al517       O525   1.963       .  S
Al517       O527   1.878       .  S
Al517       O526   1.771       .  S
C518        O531   1.254       .  A
C518        C956   1.467       .  S
O519        C529   1.266       .  A
O519       Al521   1.935       .  S
O520        C533   1.274       .  A
O520       Al530   1.955       .  S
Al521       O534   1.882       .  S
Al521       O531   1.858       .  S
Al521       O526   1.773       .  S
O522        C529   1.254       .  A
O522       Al530   1.878       .  S
O523        C532   1.256       .  A
O523       Al530   1.873       .  S
O524       Al530   1.953       .  S
O525        C532   1.273       .  A
O526       Al530   1.765       .  S
O527        C528   1.260       .  A
C528        C984   1.481       .  S
C529       C1015   1.461       .  S
C532        C942   1.478       .  S
C533        O534   1.260       .  A
C533        C970   1.484       .  S
O535        C550   1.267       .  A
O535       Al543   1.933       .  S
C536        O546   1.268       .  A
C536        O537   1.258       .  A
C536       C1001   1.496       .  S
O537       Al539   1.893       .  S
O538        C540   1.278       .  A
O538       Al539   1.983       .  S
Al539       O547   1.995       .  S
Al539       O549   1.889       .  S
Al539       O548   1.768       .  S
C540        O553   1.256       .  A
C540        C903   1.489       .  S
O541        C551   1.267       .  A
O541       Al543   1.949       .  S
O542        C555   1.271       .  A
Al543       O556   1.897       .  S
Al543       O553   1.860       .  S
Al543       O548   1.779       .  S
O544        C551   1.252       .  A
O544       Al552   1.857       .  S
O545        C554   1.253       .  A
O545       Al552   1.858       .  S
O546       Al552   1.949       .  S
O547        C554   1.280       .  A
O548       Al552   1.759       .  S
O549        C550   1.261       .  A
C550        C987   1.481       .  S
C551        C928   1.469       .  S
C554        C889   1.484       .  S
C555        C914   1.482       .  S
O557        C572   1.262       .  A
O557       Al565   1.890       .  S
C558        O568   1.255       .  A
C558        O559   1.270       .  A
C558        C875   1.497       .  S
O559       Al561   1.953       .  S
O560        C562   1.248       .  A
O560       Al561   1.858       .  S
Al561       O569   1.863       .  S
Al561       O571   1.967       .  S
Al561       O570   1.760       .  S
C562        O575   1.266       .  A
C562       C1012   1.464       .  S
O563        C573   1.254       .  A
O563       Al565   1.851       .  S
O564        C577   1.261       .  A
O564       Al574   1.879       .  S
Al565       O578   1.930       .  S
Al565       O575   1.926       .  S
Al565       O570   1.773       .  S
O566        C573   1.273       .  A
O566       Al574   1.969       .  S
O567        C576   1.277       .  A
O567       Al574   1.975       .  S
O568       Al574   1.878       .  S
O569        C576   1.256       .  A
O570       Al574   1.767       .  S
O571        C572   1.277       .  A
C572        C900   1.498       .  S
C573        C917   1.468       .  S
C576        C844   1.496       .  S
C577        O578   1.267       .  A
C577        C861   1.479       .  S
O579       Al587   1.881       .  S
C580        O590   1.255       .  A
C580        O581   1.269       .  A
C580        C872   1.488       .  S
O581       Al583   1.950       .  S
O582        C584   1.252       .  A
O582       Al583   1.851       .  S
Al583       O591   1.857       .  S
Al583       O592   1.761       .  S
C584        O597   1.269       .  A
C584        C931   1.463       .  S
O585        C595   1.251       .  A
O585       Al587   1.846       .  S
O586        C599   1.259       .  A
O586       Al596   1.861       .  S
Al587       O600   1.939       .  S
Al587       O597   1.943       .  S
Al587       O592   1.772       .  S
O588        C595   1.279       .  A
O588       Al596   1.986       .  S
O589        C598   1.282       .  A
O589       Al596   1.998       .  S
O590       Al596   1.874       .  S
O591        C598   1.255       .  A
O592       Al596   1.760       .  S
O593        C594   1.273       .  A
C594        C959   1.485   1_554  S
C595        C973   1.493       .  S
C598        C830   1.495       .  S
C599        O600   1.267       .  A
C599        C858   1.478       .  S
O601       Al609   1.881       .  S
C602        O612   1.254       .  A
C602        O603   1.269       .  A
C602        C805   1.498       .  S
O603       Al605   1.953       .  S
O604        C606   1.252       .  A
O604       Al605   1.864       .  S
Al605       O613   1.856       .  S
Al605       O614   1.765       .  S
C606        O619   1.267       .  A
C606        C760   1.451       .  S
O607        C617   1.252       .  A
O607       Al609   1.841       .  S
O608        C621   1.260       .  A
O608       Al618   1.890       .  S
Al609       O622   1.932       .  S
Al609       O619   1.945       .  S
Al609       O614   1.774       .  S
O610        C617   1.279       .  A
O610       Al618   1.985       .  S
O611        C620   1.282       .  A
O611       Al618   1.997       .  S
O612       Al618   1.883       .  S
O613        C620   1.255       .  A
O614       Al618   1.768       .  S
O615        C616   1.273   1_554  A
C616        C774   1.477       .  S
C617        C791   1.487       .  S
C620        C886   1.488       .  S
C621        O622   1.266       .  A
C621        C816   1.489       .  S
O623        C638   1.261       .  A
O623       Al631   1.885       .  S
C624        O634   1.255       .  A
C624        O625   1.270       .  A
C624        C802   1.501       .  S
O625       Al627   1.959       .  S
O626        C628   1.253       .  A
O626       Al627   1.863       .  S
Al627       O635   1.857       .  S
Al627       O637   1.969       .  S
Al627       O636   1.766       .  S
C628        O641   1.270       .  A
C628        C718   1.465       .  S
O629        C639   1.254       .  A
O629       Al631   1.840       .  S
O630        C643   1.259       .  A
O630       Al640   1.880       .  S
Al631       O644   1.942       .  S
Al631       O641   1.944       .  S
Al631       O636   1.770       .  S
O632        C639   1.276       .  A
O632       Al640   1.973       .  S
O633        C642   1.278       .  A
O633       Al640   1.978       .  S
O634       Al640   1.883       .  S
O635        C642   1.256       .  A
O636       Al640   1.767       .  S
O637        C638   1.274       .  A
C638        C732   1.494       .  S
C639        C749   1.485       .  S
C642        C945   1.478       .  S
C643        O644   1.267       .  A
C643        C819   1.486       .  S
O645        C660   1.266       .  A
O645       Al653   1.928       .  S
C646        O656   1.264       .  A
C646        O647   1.257       .  A
C646        C690   1.489       .  S
O647       Al649   1.885       .  S
O648        C650   1.278       .  A
O648       Al649   1.988       .  S
Al649       O657   1.990       .  S
Al649       O659   1.877       .  S
Al649       O658   1.769       .  S
C650        O663   1.253       .  A
C650        C735   1.489       .  S
O651        C661   1.265       .  A
O651       Al653   1.930       .  S
O652        C665   1.271       .  A
Al653       O666   1.892       .  S
Al653       O663   1.847       .  S
Al653       O658   1.775       .  S
O654        C661   1.254       .  A
O654       Al662   1.869       .  S
O655        C664   1.257       .  A
O655       Al662   1.856       .  S
O656       Al662   1.936       .  S
O657        C664   1.281       .  A
O658       Al662   1.765       .  S
O659        C660   1.257       .  A
C660        C704   1.485       .  S
C661        C763   1.444       .  S
C664        C833   1.496       .  S
C665        C746   1.481       .  S
O667        C682   1.266       .  A
O667       Al675   1.936       .  S
C668        O678   1.268       .  A
C668        O669   1.256       .  A
C668        C693   1.492       .  S
O669       Al671   1.873       .  S
O670        C672   1.279       .  A
O670       Al671   1.991       .  S
Al671       O679   1.988       .  S
Al671       O681   1.883       .  S
Al671       O680   1.768       .  S
C672        O685   1.252       .  A
C672        C777   1.485       .  S
O673        C683   1.267       .  A
O673       Al675   1.940       .  S
O674        C687   1.276       .  A
O674       Al684   1.966       .  S
Al675       O688   1.879       .  S
Al675       O685   1.827       .  S
Al675       O680   1.769       .  S
O676        C683   1.254       .  A
O676       Al684   1.869       .  S
O677        C686   1.256       .  A
O677       Al684   1.851       .  S
O678       Al684   1.951       .  S
O679        C686   1.280       .  A
O680       Al684   1.762       .  S
O681        C682   1.260       .  A
C682        C707   1.482       .  S
C683        C721   1.463       .  S
C686        C847   1.497       .  S
C687        O688   1.259       .  A
C687        C788   1.489       .  S
C689        C690   1.409       .  A
C689        C694   1.405       .  A
C689        H696   1.084       .  S
C690        C691   1.412       .  A
C691        C692   1.400       .  A
C691        N698   1.431       .  S
C692        C693   1.409       .  A
C692        H697   1.084       .  S
C693        C694   1.411       .  A
C694        N695   1.430       .  S
N695        O699   1.261       .  A
N695        O700   1.262       .  A
N698        O702   1.262       .  A
N698        O701   1.261       .  A
C703        C704   1.406       .  A
C703       C1732   1.401   1_455  A
C703        H710   1.084       .  S
C704        C705   1.415       .  A
C705       C1730   1.395   1_455  A
C705        N712   1.430       .  S
C706       C1729   1.399       .  A
C706        C707   1.404       .  A
C706        H711   1.084       .  S
C707        C708   1.413       .  A
C708       C1727   1.401       .  A
C708        N709   1.429       .  S
N709        O713   1.262   1_545  A
N709        O714   1.261       .  A
N712        O716   1.262       .  A
N712        O715   1.262       .  A
C717        C718   1.401   1_545  A
C717        C722   1.393       .  A
C717        H724   1.084       .  S
C718        C719   1.413       .  A
C719        C720   1.392       .  A
C719        N726   1.429       .  S
C720        C721   1.400   1_565  A
C720        H725   1.084       .  S
C721        C722   1.411       .  A
C722        N723   1.432       .  S
N723        O727   1.261       .  A
N723        O728   1.262       .  A
N726        O730   1.261       .  A
N726        O729   1.261       .  A
C731        C732   1.414   1_545  A
C731        C736   1.407       .  A
C731        H738   1.083       .  S
C732        C733   1.410       .  A
C733        C734   1.400       .  A
C733        N740   1.429       .  S
C734        C735   1.410   1_565  A
C734        H739   1.084       .  S
C735        C736   1.407       .  A
C736        N737   1.428       .  S
N737        O741   1.262       .  A
N737        O742   1.262       .  A
N740        O744   1.262       .  A
N740        O743   1.262       .  A
C745        C746   1.412   1_565  A
C745        C750   1.405       .  A
C745        H752   1.084       .  S
C746        C747   1.406       .  A
C747        C748   1.393       .  A
C747        N754   1.430       .  S
C748        C749   1.411   1_545  A
C748        H753   1.084       .  S
C749        C750   1.408       .  A
C750        N751   1.429       .  S
N751        O755   1.262       .  A
N751        O756   1.262       .  A
N754        O758   1.262       .  A
N754        O757   1.262       .  A
C759        C764   1.396       .  A
C759        H766   1.084       .  S
C760        C761   1.408       .  A
C761        C762   1.390   1_565  A
C761        N768   1.430       .  S
C762        H767   1.085       .  S
C763        C764   1.402       .  A
C764        N765   1.431       .  S
N765        O769   1.261       .  A
N765        O770   1.262   1_545  A
N768        O772   1.261       .  A
N768        O771   1.262       .  A
C773        C774   1.412   1_545  A
C773        C778   1.404       .  A
C773        H780   1.084       .  S
C774        C775   1.404       .  A
C775        C776   1.391       .  A
C775        N782   1.430       .  S
C776        C777   1.413   1_565  A
C776        H781   1.084       .  S
C777        C778   1.407       .  A
C778        N779   1.428       .  S
N779        O783   1.262       .  A
N779        O784   1.262       .  A
N782        O786   1.262       .  A
N782        O785   1.262       .  A
C787        C788   1.398       .  A
C787        C792   1.397       .  A
C787        H794   1.084       .  S
C788        C789   1.422   1_545  A
C789        C790   1.405       .  A
C789        N796   1.429       .  S
C790        C791   1.400       .  A
C790        H795   1.084       .  S
C791        C792   1.421   1_565  A
C792        N793   1.430       .  S
N793        O797   1.260       .  A
N793        O798   1.262       .  A
N796        O800   1.262       .  A
N796        O799   1.262       .  A
C801        C802   1.404       .  A
C801        C806   1.406       .  A
C801        H808   1.083       .  S
C802        C803   1.420       .  A
C803        C804   1.406       .  A
C803        N810   1.429       .  S
C804        C805   1.403       .  A
C804        H809   1.084       .  S
C805        C806   1.419       .  A
C806        N807   1.429       .  S
N807        O811   1.262       .  A
N807        O812   1.262       .  A
N810        O814   1.262       .  A
N810        O813   1.262       .  A
C815        C816   1.407       .  A
C815       C1844   1.404       .  A
C815        H822   1.084       .  S
C816        C817   1.415       .  A
C817       C1842   1.397       .  A
C817        N824   1.429       .  S
C818       C1841   1.397   1_455  A
C818        C819   1.404       .  A
C818        H823   1.084       .  S
C819        C820   1.414       .  A
C820       C1839   1.404   1_455  A
C820        N821   1.429       .  S
N821        O825   1.262       .  A
N821        O826   1.262   1_565  A
N824        O828   1.262       .  A
N824        O827   1.262       .  A
C829        C834   1.404       .  A
C829        H836   1.084       .  S
C830        C831   1.407       .  A
C831        N838   1.428       .  S
C832        C833   1.415   1_554  A
C832        H837   1.084       .  S
C833        C834   1.408       .  A
C834        N835   1.428       .  S
N835        O839   1.262       .  A
N835        O840   1.262       .  A
N838        O842   1.262       .  A
N838        O841   1.262       .  A
C843        C844   1.415       .  A
C843        C848   1.406       .  A
C843        H850   1.083       .  S
C844        C845   1.407       .  A
C845        C846   1.401       .  A
C845        N852   1.429       .  S
C846        C847   1.415       .  A
C846        H851   1.083       .  S
C847        C848   1.408       .  A
C848        N849   1.428       .  S
N849        O853   1.262       .  A
N849        O854   1.262       .  A
N852        O856   1.262       .  A
N852        O855   1.262       .  A
C857        C858   1.403       .  A
C857        C862   1.389       .  A
C857        H864   1.084       .  S
C858        C859   1.412       .  A
C859        C860   1.403       .  A
C859        N866   1.429       .  S
C860        C861   1.408       .  A
C860        H865   1.084       .  S
C861        C862   1.412       .  A
C862        N863   1.429       .  S
N863        O867   1.262       .  A
N863        O868   1.262       .  A
N866        O870   1.262       .  A
N866        O869   1.262       .  A
C871       C1896   1.403       .  A
C871        C876   1.403       .  A
C871        H878   1.084       .  S
C872       C1895   1.402   1_455  A
C872        C873   1.416       .  A
C873        C874   1.401   1_455  A
C873        N880   1.429       .  S
C874       C1899   1.404       .  A
C874        H879   1.084   1_655  S
C875       C1898   1.405       .  A
C875        C876   1.420       .  A
C876        N877   1.430       .  S
N877        O881   1.262       .  A
N877        O882   1.262       .  A
N880        O884   1.262       .  A
N880        O883   1.262       .  A
C885        C886   1.401       .  A
C885        C890   1.408       .  A
C885        H892   1.084       .  S
C887        C888   1.406       .  A
C887        N894   1.429       .  S
C888        C889   1.401       .  A
C888        H893   1.084       .  S
C890        N891   1.429       .  S
N891        O895   1.262       .  A
N894        O898   1.261       .  A
C899        C900   1.403       .  A
C899        C904   1.399       .  A
C899        H906   1.084       .  S
C900        C901   1.423       .  A
C901        C902   1.409       .  A
C901        N908   1.429       .  S
C902        C903   1.402       .  A
C902        H907   1.084       .  S
C903        C904   1.416       .  A
C904        N905   1.430       .  S
N905        O909   1.262       .  A
N905        O910   1.262       .  A
N908        O912   1.262       .  A
N908        O911   1.262       .  A
C913        C914   1.405       .  A
C913        C918   1.392       .  A
C913        H920   1.084       .  S
C914        C915   1.415       .  A
C915        C916   1.405       .  A
C915        N922   1.429       .  S
C916        C917   1.402       .  A
C916        H921   1.084       .  S
C917        C918   1.409       .  A
C918        N919   1.431       .  S
N919        O923   1.262       .  A
N919        O924   1.262       .  A
C927        C928   1.408       .  A
C927       C1956   1.388   1_556  A
C927        H934   1.081       .  S
C929       C1954   1.392       .  A
C929        N936   1.429       .  S
C930       C1953   1.392       .  A
C930        C931   1.411   1_655  A
C930        H935   1.084       .  S
C932       C1951   1.388   1_454  A
C932        N933   1.429       .  S
N933        O937   1.262       .  A
N933        O938   1.262       .  A
N936        O940   1.262       .  A
N936        O939   1.262       .  A
C941        C942   1.399       .  A
C941        C946   1.401       .  A
C941        H948   1.084       .  S
C942        C943   1.414       .  A
C943        C944   1.405       .  A
C943        N950   1.429       .  S
C944        C945   1.401       .  A
C944        H949   1.084       .  S
C945        C946   1.415       .  A
C946        N947   1.430       .  S
N947        O951   1.262       .  A
N947        O952   1.262       .  A
N950        O954   1.262       .  A
N950        O953   1.262       .  A
C955        C956   1.397       .  A
C955        C960   1.403       .  A
C955        H962   1.084       .  S
C956        C957   1.407       .  A
C957        C958   1.397       .  A
C957        N964   1.429       .  S
C958        C959   1.405       .  A
C958        H963   1.084       .  S
C959        C960   1.417       .  A
C960        N961   1.426       .  S
N961        O965   1.262       .  A
N961        O966   1.262   1_556  A
N964        O968   1.262       .  A
N964        O967   1.261       .  A
C969        C970   1.396       .  A
C969        C974   1.397       .  A
C969        H976   1.084       .  S
C970        C971   1.418       .  A
C971        C972   1.404       .  A
C971        N978   1.428       .  S
C972        C973   1.401       .  A
C972        H977   1.084       .  S
C973        C974   1.426       .  A
C974        N975   1.429       .  S
N975        O979   1.262       .  A
N975        O980   1.262       .  A
N978        O982   1.261       .  A
N978        O981   1.262       .  A
C983        C984   1.405       .  A
C983        C988   1.397       .  A
C983        H990   1.084       .  S
C984        C985   1.410       .  A
C985        C986   1.403       .  A
C985        N992   1.427       .  S
C986        C987   1.406       .  A
C986        H991   1.084       .  S
C987        C988   1.411       .  A
C988        N989   1.429       .  S
N989        O993   1.262       .  A
N989        O994   1.261       .  A
N992        O996   1.262       .  A
N992        O995   1.262       .  A
C997        C998   1.408       .  A
C997       C2026   1.403   1_455  A
C997       H1004   1.084       .  S
C998        C999   1.411   1_455  A
C999       C2024   1.408       .  A
C999       N1006   1.430       .  S
C1000      C2023   1.413       .  A
C1000      C1001   1.411       .  A
C1000      H1005   1.084       .  S
C1001      C1002   1.412       .  A
C1002      C2021   1.398       .  A
C1002      N1003   1.427       .  S
N1003      O2031   1.261       .  A
N1003      O1008   1.262       .  A
N1006      O1010   1.262       .  A
N1006      O2033   1.261       .  A
O1007      N2027   1.261       .  A
O1009      N2030   1.262       .  A
C1011      C1012   1.398       .  A
C1011      C2040   1.387       .  A
C1011      H1018   1.084       .  S
C1012      C1013   1.415       .  A
C1013      C2038   1.391       .  A
C1013      N1020   1.430       .  S
C1014      C2037   1.391   1_455  A
C1014      C1015   1.402       .  A
C1014      H1019   1.084       .  S
C1015      C1016   1.410   1_455  A
C1016      C2035   1.397       .  A
C1016      N1017   1.432       .  S
N1017      O2045   1.262       .  A
N1017      O1022   1.262       .  A
N1020      O2048   1.262       .  A
N1020      O1023   1.261       .  A
O1021      N2041   1.261       .  A
O1024      N2044   1.262       .  A
O1025      C1040   1.266       .  A
O1025     Al1033   1.943       .  S
C1026      O1036   1.267       .  A
C1026      O1027   1.257       .  A
C1026      C1510   1.498       .  S
O1027     Al1029   1.879       .  S
O1028      C1030   1.278       .  A
O1028     Al1029   1.980       .  S
Al1029     O1037   1.978       .  S
Al1029     O1039   1.881       .  S
Al1029     O1038   1.763       .  S
C1030      O1043   1.258       .  A
C1030      C1468   1.477       .  S
O1031      C1041   1.267       .  A
O1031     Al1033   1.943       .  S
O1032      C1045   1.274       .  A
O1032     Al1042   1.944       .  S
Al1033     O1046   1.887       .  S
Al1033     O1043   1.867       .  S
Al1033     O1038   1.780       .  S
O1034      C1041   1.250       .  A
O1034     Al1042   1.864       .  S
O1035      C1044   1.251       .  A
O1035     Al1042   1.848       .  S
O1036     Al1042   1.948       .  S
O1037      C1044   1.277       .  A
O1038     Al1042   1.765       .  S
O1039      C1040   1.260       .  A
C1040      C1496   1.488       .  S
C1041      C1527   1.473       .  S
C1044      C1454   1.487       .  S
C1045      O1046   1.263       .  A
C1045      C1482   1.483       .  S
O1047      C1062   1.266       .  A
O1047     Al1055   1.929       .  S
C1048      O1058   1.264       .  A
C1048      O1049   1.259       .  A
C1048      C1513   1.496       .  S
O1049     Al1051   1.902       .  S
O1050      C1052   1.278       .  A
O1050     Al1051   1.979       .  S
Al1051     O1059   1.992       .  S
Al1051     O1061   1.887       .  S
Al1051     O1060   1.765       .  S
C1052      O1065   1.254       .  A
C1052      C1415   1.483       .  S
O1053      C1063   1.267       .  A
O1053     Al1055   1.948       .  S
O1054      C1067   1.272       .  A
O1054     Al1576   1.950       .  S
Al1055     O1068   1.891       .  S
Al1055     O1065   1.848       .  S
Al1055     O1060   1.778       .  S
O1056      C1063   1.253       .  A
O1056     Al1064   1.856       .  S
O1057      C1066   1.252       .  A
O1057     Al1064   1.844       .  S
O1058     Al1064   1.937       .  S
O1059      C1066   1.281       .  A
O1060     Al1064   1.760       .  S
O1061      C1062   1.260       .  A
C1062      C1499   1.487       .  S
C1063      C1440   1.464       .  S
Al1064     O1566   1.933       .  S
C1066      C1401   1.480       .  S
C1067      O1580   1.258       .  A
C1067      C1426   1.485   1_556  S
O1068      C1579   1.261       .  A
O1069      C1084   1.262       .  A
O1069     Al1077   1.888       .  S
C1070      O1080   1.254       .  A
C1070      O1071   1.268       .  A
C1070      C1387   1.496       .  S
O1071     Al1073   1.946       .  S
O1072      C1074   1.250       .  A
O1072     Al1073   1.864       .  S
Al1073     O1081   1.849       .  S
Al1073     O1083   1.959       .  S
Al1073     O1082   1.760       .  S
C1074      O1087   1.268       .  A
C1074      C1524   1.472       .  S
O1075      C1085   1.255       .  A
O1075     Al1077   1.846       .  S
O1076      C1089   1.262       .  A
O1076     Al1086   1.890       .  S
Al1077     O1090   1.937       .  S
Al1077     O1087   1.947       .  S
Al1077     O1082   1.773       .  S
O1078      C1085   1.276       .  A
O1078     Al1086   1.973       .  S
O1079      C1088   1.279       .  A
O1079     Al1086   1.986       .  S
O1080     Al1086   1.880       .  S
O1081      C1088   1.254       .  A
O1082     Al1086   1.770       .  S
O1083      C1084   1.275       .  A
C1084      C1412   1.492       .  S
C1085      C1429   1.470       .  S
C1088      C1356   1.496       .  S
C1089      O1090   1.268       .  A
C1089      C1373   1.486       .  S
O1091      C1618   1.260   1_554  A
O1091     Al1099   1.887       .  S
C1092      O1102   1.258       .  A
C1092      O1093   1.267       .  A
C1092      C1384   1.492       .  S
O1093     Al1095   1.942       .  S
O1094      C1096   1.252       .  A
O1094     Al1095   1.854       .  S
Al1095     O1103   1.853       .  S
Al1095     O1617   1.948       .  S
Al1095     O1104   1.761       .  S
C1096      O1109   1.270       .  A
C1096      C1443   1.468       .  S
O1097      C1107   1.252       .  A
O1097     Al1099   1.842       .  S
O1098      C1111   1.261       .  A
O1098     Al1108   1.879       .  S
Al1099     O1112   1.947       .  S
Al1099     O1109   1.949       .  S
Al1099     O1104   1.773       .  S
O1100      C1107   1.274       .  A
O1100     Al1108   1.967       .  S
O1101      C1110   1.279       .  A
O1101     Al1108   1.980       .  S
O1102     Al1108   1.894       .  S
O1103      C1110   1.256       .  A
O1104     Al1108   1.767       .  S
O1105      C1106   1.273       .  A
O1105     Al1607   1.958       .  S
C1106      O1603   1.262       .  A
C1106      C1471   1.491       .  S
C1107      C1485   1.472       .  S
C1110      C1342   1.489       .  S
C1111      O1112   1.269       .  A
C1111      C1370   1.485       .  S
O1113      C1640   1.260   1_554  A
O1113     Al1121   1.880       .  S
C1114      O1124   1.254       .  A
C1114      O1115   1.267       .  A
C1114      C1317   1.493       .  S
O1115     Al1117   1.945       .  S
O1116      C1118   1.254       .  A
O1116     Al1117   1.871       .  S
Al1117     O1125   1.854       .  S
Al1117     O1639   1.947   1_554  S
Al1117     O1126   1.765       .  S
C1118      O1131   1.268       .  A
C1118      C1272   1.457       .  S
O1119      C1129   1.254       .  A
O1119     Al1121   1.844       .  S
O1120      C1133   1.259       .  A
O1120     Al1130   1.890       .  S
Al1121     O1134   1.939       .  S
Al1121     O1131   1.952       .  S
Al1121     O1126   1.773       .  S
O1122      C1129   1.280       .  A
O1122     Al1130   1.985       .  S
O1123      C1132   1.281       .  A
O1123     Al1130   1.994       .  S
O1124     Al1130   1.878       .  S
O1125      C1132   1.253       .  A
O1126     Al1130   1.764       .  S
O1127      C1128   1.273       .  A
O1127     Al1629   1.958       .  S
C1128      O1625   1.261       .  A
C1128      C1286   1.484       .  S
C1129      C1303   1.490       .  S
C1132      C1398   1.483       .  S
C1133      O1134   1.266       .  A
C1133      C1328   1.494       .  S
O1135      C1150   1.261       .  A
O1135     Al1143   1.886       .  S
C1136      O1146   1.255       .  A
C1136      O1137   1.269       .  A
C1136      C1314   1.494       .  S
O1137     Al1139   1.952       .  S
O1138      C1140   1.253       .  A
O1138     Al1139   1.862       .  S
Al1139     O1147   1.852       .  S
Al1139     O1149   1.965       .  S
Al1139     O1148   1.767       .  S
C1140      O1153   1.271       .  A
C1140      C1230   1.466       .  S
O1141      C1151   1.254       .  A
O1141     Al1143   1.846       .  S
O1142      C1155   1.257       .  A
O1142     Al1152   1.870       .  S
Al1143     O1156   1.948       .  S
Al1143     O1153   1.944       .  S
Al1143     O1148   1.770       .  S
O1144      C1151   1.278       .  A
O1144     Al1152   1.985       .  S
O1145      C1154   1.280       .  A
O1145     Al1152   1.984       .  S
O1146     Al1152   1.878       .  S
O1147      C1154   1.255       .  A
O1148     Al1152   1.764       .  S
O1149      C1150   1.273       .  A
C1150      C1244   1.492       .  S
C1151      C1261   1.492       .  S
C1154      C1457   1.487       .  S
C1155      O1156   1.268       .  A
C1155      C1331   1.487       .  S
O1157      C1172   1.265       .  A
O1157     Al1165   1.919       .  S
C1158      O1168   1.262       .  A
C1158      O1159   1.257       .  A
C1158      C1202   1.491       .  S
O1159     Al1161   1.892       .  S
O1160      C1162   1.277       .  A
O1160     Al1161   1.980       .  S
Al1161     O1169   1.985       .  S
Al1161     O1171   1.886       .  S
Al1161     O1170   1.774       .  S
C1162      O1175   1.254       .  A
C1162      C1247   1.484       .  S
O1163      C1173   1.264       .  A
O1163     Al1165   1.929       .  S
O1164      C1177   1.272   1_556  A
O1164     Al1686   1.953       .  S
Al1165     O1178   1.894       .  S
Al1165     O1175   1.847       .  S
Al1165     O1170   1.778       .  S
O1166      C1173   1.256       .  A
O1166     Al1174   1.873       .  S
O1167      C1176   1.258       .  A
O1167     Al1174   1.857       .  S
O1168     Al1174   1.930       .  S
O1169      C1176   1.280       .  A
O1170     Al1174   1.767       .  S
O1171      C1172   1.258       .  A
C1172      C1216   1.486       .  S
C1173      C1275   1.450       .  S
Al1174     O1676   1.938       .  S
C1176      C1345   1.496       .  S
C1177      O1690   1.263   1_554  A
C1177      C1258   1.487       .  S
O1178      C1689   1.262       .  A
O1179      C1194   1.266       .  A
O1179     Al1187   1.937       .  S
C1180      O1190   1.268       .  A
C1180      O1181   1.256       .  A
C1180      C1205   1.494       .  S
O1181     Al1183   1.874       .  S
O1182      C1184   1.279       .  A
O1182     Al1183   1.994       .  S
Al1183     O1191   1.990       .  S
Al1183     O1193   1.878       .  S
Al1183     O1192   1.767       .  S
C1184      O1197   1.252       .  A
C1184      C1289   1.486       .  S
O1185      C1195   1.268       .  A
O1185     Al1187   1.940       .  S
O1186      C1199   1.275       .  A
O1186     Al1196   1.963       .  S
Al1187     O1200   1.881       .  S
Al1187     O1197   1.828       .  S
Al1187     O1192   1.772       .  S
O1188      C1195   1.252       .  A
O1188     Al1196   1.864       .  S
O1189      C1198   1.255       .  A
O1189     Al1196   1.847       .  S
O1190     Al1196   1.953       .  S
O1191      C1198   1.280       .  A
O1192     Al1196   1.762       .  S
O1193      C1194   1.259       .  A
C1194      C1219   1.485       .  S
C1195      C1233   1.465       .  S
C1198      C1359   1.496       .  S
C1199      O1200   1.260       .  A
C1199      C1300   1.487       .  S
C1201      C1202   1.409       .  A
C1201      C1206   1.406       .  A
C1201      H1208   1.084       .  S
C1202      C1203   1.414       .  A
C1203      C1204   1.401       .  A
C1203      N1210   1.433       .  S
C1204      C1205   1.409       .  A
C1204      H1209   1.083       .  S
C1205      C1206   1.412       .  A
C1206      N1207   1.431       .  S
N1207      O1211   1.261       .  A
N1207      O1212   1.262       .  A
N1210      O1214   1.262       .  A
N1210      O1213   1.262       .  A
C1215      C1216   1.405       .  A
C1215      H1222   1.084       .  S
C1216      C1217   1.415       .  A
C1217      N1224   1.429       .  S
C1218      C1219   1.405       .  A
C1218      H1223   1.084       .  S
C1219      C1220   1.413       .  A
C1220      N1221   1.429       .  S
N1221      O1225   1.262   1_545  A
N1221      O1226   1.262       .  A
N1224      O1228   1.262       .  A
N1224      O1227   1.262       .  A
C1229      C1230   1.400   1_545  A
C1229      C1234   1.391       .  A
C1229      H1236   1.084       .  S
C1230      C1231   1.414       .  A
C1231      C1232   1.392       .  A
C1231      N1238   1.429       .  S
C1232      C1233   1.400   1_565  A
C1232      H1237   1.084       .  S
C1233      C1234   1.412       .  A
C1234      N1235   1.429       .  S
N1235      O1239   1.261       .  A
N1235      O1240   1.262       .  A
N1238      O1242   1.262       .  A
N1238      O1241   1.262       .  A
C1243      C1244   1.413   1_545  A
C1243      C1248   1.405       .  A
C1243      H1250   1.083       .  S
C1244      C1245   1.412       .  A
C1245      C1246   1.399       .  A
C1245      N1252   1.429       .  S
C1246      C1247   1.408   1_565  A
C1246      H1251   1.084       .  S
C1247      C1248   1.406       .  A
C1248      N1249   1.428       .  S
N1249      O1253   1.262       .  A
N1249      O1254   1.262       .  A
N1252      O1256   1.262       .  A
N1252      O1255   1.262       .  A
C1257      C1258   1.412       .  A
C1257      C1262   1.407   1_545  A
C1257      H1264   1.083   1_545  S
C1258      C1259   1.407       .  A
C1259      C1260   1.397       .  A
C1259      N1266   1.430       .  S
C1260      C1261   1.413   1_545  A
C1260      H1265   1.084       .  S
C1261      C1262   1.409       .  A
C1262      N1263   1.428       .  S
N1263      O1267   1.262       .  A
N1263      O1268   1.262       .  A
N1266      O1270   1.262       .  A
N1266      O1269   1.262       .  A
C1271      C1784   1.406   1_545  A
C1271      C1276   1.395       .  A
C1271      H1278   1.084       .  S
C1272      C1783   1.405   1_564  A
C1272      C1273   1.407       .  A
C1273      C1274   1.392   1_565  A
C1273      N1280   1.429       .  S
C1274      C1787   1.399   1_554  A
C1274      H1279   1.084       .  S
C1275      C1786   1.399   1_545  A
C1275      C1276   1.402       .  A
C1276      N1277   1.431       .  S
N1277      O1281   1.260       .  A
N1277      O1282   1.262       .  A
N1280      O1284   1.261       .  A
N1280      O1283   1.261   1_565  A
C1285      C1286   1.414   1_545  A
C1285      C1290   1.406       .  A
C1285      H1292   1.083       .  S
C1286      C1287   1.407       .  A
C1287      C1288   1.393       .  A
C1287      N1294   1.430       .  S
C1288      C1289   1.411   1_565  A
C1288      H1293   1.084       .  S
C1289      C1290   1.406       .  A
C1290      N1291   1.428       .  S
N1291      O1295   1.262       .  A
N1291      O1296   1.262       .  A
N1294      O1298   1.261       .  A
N1294      O1297   1.262       .  A
C1299      C1300   1.397       .  A
C1299      C1304   1.396       .  A
C1299      H1306   1.084       .  S
C1300      C1301   1.420   1_545  A
C1301      C1302   1.405       .  A
C1301      N1308   1.428       .  S
C1302      C1303   1.401       .  A
C1302      H1307   1.084       .  S
C1303      C1304   1.422   1_565  A
C1304      N1305   1.429       .  S
N1305      O1309   1.261       .  A
N1305      O1310   1.262       .  A
N1308      O1312   1.262       .  A
N1308      O1311   1.262       .  A
C1313      C1314   1.403       .  A
C1313      C1318   1.404       .  A
C1313      H1320   1.083       .  S
C1314      C1315   1.418       .  A
C1315      C1316   1.403       .  A
C1315      N1322   1.429       .  S
C1316      C1317   1.403       .  A
C1316      H1321   1.084       .  S
C1317      C1318   1.419       .  A
C1318      N1319   1.430       .  S
N1319      O1323   1.262       .  A
N1319      O1324   1.262       .  A
N1322      O1326   1.262       .  A
N1322      O1325   1.262       .  A
C1327      C1328   1.409       .  A
C1327      H1334   1.083       .  S
C1328      C1329   1.415       .  A
C1329      N1336   1.429       .  S
C1330      C1331   1.408       .  A
C1330      H1335   1.084       .  S
C1331      C1332   1.412       .  A
C1332      N1333   1.429       .  S
N1333      O1337   1.262   1_565  A
N1333      O1338   1.262   1_565  A
N1336      O1340   1.262       .  A
N1336      O1339   1.262       .  A
C1341      C1854   1.415       .  A
C1341      C1346   1.404       .  A
C1341      H1348   1.084       .  S
C1342      C1853   1.413   1_554  A
C1342      C1343   1.407       .  A
C1343      C1856   1.402       .  A
C1343      N1350   1.429       .  S
C1344      C1855   1.404       .  A
C1344      C1345   1.415       .  A
C1344      H1349   1.084       .  S
C1345      C1346   1.408       .  A
C1346      N1347   1.429       .  S
N1347      O1351   1.262       .  A
N1347      O1352   1.262       .  A
N1350      O1354   1.262       .  A
N1350      O1353   1.262       .  A
C1355      C1356   1.417       .  A
C1355      C1360   1.404       .  A
C1355      H1362   1.083       .  S
C1356      C1357   1.406       .  A
C1357      C1358   1.402       .  A
C1357      N1364   1.428       .  S
C1358      C1359   1.417       .  A
C1358      H1363   1.083       .  S
C1359      C1360   1.406       .  A
C1360      N1361   1.429       .  S
N1361      O1365   1.262       .  A
N1361      O1366   1.262       .  A
N1364      O1368   1.262       .  A
N1364      O1367   1.262       .  A
C1369      C1370   1.404       .  A
C1369      C1374   1.397       .  A
C1369      H1376   1.084       .  S
C1370      C1371   1.414       .  A
C1371      C1372   1.405       .  A
C1371      N1378   1.429       .  S
C1372      C1373   1.406       .  A
C1372      H1377   1.084       .  S
C1373      C1374   1.414       .  A
C1374      N1375   1.429       .  S
N1375      O1379   1.262       .  A
N1375      O1380   1.262       .  A
N1378      O1382   1.262       .  A
N1378      O1381   1.262       .  A
C1383      C1388   1.404       .  A
C1383      H1390   1.084       .  S
C1384      C1385   1.414       .  A
C1385      C1386   1.406       .  A
C1385      N1392   1.429       .  S
C1386      H1391   1.083       .  S
C1387      C1388   1.420       .  A
C1388      N1389   1.429       .  S
N1389      O1393   1.262       .  A
N1389      O1394   1.262       .  A
N1392      O1396   1.262       .  A
N1392      O1395   1.262       .  A
C1397      C1398   1.400       .  A
C1397      C1402   1.405       .  A
C1397      H1404   1.084       .  S
C1398      C1911   1.417   1_554  A
C1399      C1910   1.418       .  A
C1399      C1400   1.402       .  A
C1399      N1406   1.429       .  S
C1400      C1401   1.397       .  A
C1400      H1405   1.084       .  S
C1401      C1914   1.419       .  A
C1402      C1913   1.416   1_554  A
C1402      N1403   1.429       .  S
N1403      O1407   1.262       .  A
N1403      O1920   1.261       .  A
N1406      O1410   1.261       .  A
N1406      O1921   1.262       .  A
O1408      N1915   1.262       .  A
O1409      N1918   1.262       .  A
C1411      C1412   1.402       .  A
C1411      C1416   1.396       .  A
C1411      H1418   1.084       .  S
C1412      C1413   1.421       .  A
C1413      C1414   1.406       .  A
C1413      N1420   1.429       .  S
C1414      C1415   1.401       .  A
C1414      H1419   1.084       .  S
C1415      C1416   1.417       .  A
C1416      N1417   1.431       .  S
N1417      O1421   1.261       .  A
N1417      O1422   1.261       .  A
N1420      O1424   1.262       .  A
N1420      O1423   1.262       .  A
C1425      C1426   1.404       .  A
C1425      C1430   1.394       .  A
C1425      H1432   1.084       .  S
C1426      C1427   1.419       .  A
C1427      C1428   1.404       .  A
C1427      N1434   1.429       .  S
C1428      C1429   1.399       .  A
C1428      H1433   1.084       .  S
C1429      C1430   1.411       .  A
C1430      N1431   1.431       .  S
N1431      O1435   1.262       .  A
N1431      O1436   1.262       .  A
N1434      O1950   1.262       .  A
N1434      O1949   1.262   1_554  A
O1437      N1946   1.262       .  A
O1438      N1946   1.262       .  A
C1439      C1440   1.407       .  A
C1439      H1446   1.081       .  S
C1440      C1953   1.403       .  A
C1441      C1952   1.405       .  A
C1441      N1448   1.429       .  S
C1442      C1443   1.412       .  A
C1442      H1447   1.084       .  S
C1443      C1956   1.403       .  A
C1444      C1955   1.406       .  A
C1444      N1445   1.429       .  S
N1445      O1449   1.262       .  A
N1445      O1450   1.262       .  A
N1448      O1452   1.262       .  A
N1448      O1451   1.262       .  A
C1453      C1454   1.397       .  A
C1453      C1458   1.402       .  A
C1453      H1460   1.084       .  S
C1454      C1455   1.422       .  A
C1455      C1456   1.404       .  A
C1455      N1462   1.430       .  S
C1456      C1457   1.399       .  A
C1456      H1461   1.084       .  S
C1457      C1458   1.420       .  A
C1458      N1459   1.430       .  S
N1459      O1463   1.262       .  A
N1459      O1464   1.261       .  A
N1462      O1466   1.262       .  A
N1462      O1465   1.262       .  A
C1467      C1468   1.402       .  A
C1467      C1472   1.407       .  A
C1467      H1474   1.084       .  S
C1468      C1469   1.410       .  A
C1469      C1470   1.400       .  A
C1469      N1476   1.430       .  S
C1470      C1471   1.407       .  A
C1470      H1475   1.084       .  S
C1471      C1472   1.417       .  A
C1472      N1473   1.429       .  S
N1473      O1477   1.262       .  A
N1473      O1478   1.262       .  A
N1476      O1480   1.262       .  A
N1476      O1479   1.262       .  A
C1481      C1482   1.403       .  A
C1481      C1486   1.392       .  A
C1481      H1488   1.084       .  S
C1482      C1483   1.418       .  A
C1483      C1484   1.403       .  A
C1483      N1490   1.429       .  S
C1484      C1485   1.399       .  A
C1484      H1489   1.084       .  S
C1485      C1486   1.413       .  A
C1486      N1487   1.431       .  S
N1487      O1491   1.261       .  A
N1487      O1492   1.261       .  A
N1490      O1494   1.262       .  A
N1490      O1493   1.262       .  A
C1495      C1496   1.406       .  A
C1495      C1500   1.396       .  A
C1495      H1502   1.084       .  S
C1496      C1497   1.414       .  A
C1497      C1498   1.404       .  A
C1497      N1504   1.429       .  S
C1498      C1499   1.407       .  A
C1498      H1503   1.084       .  S
C1499      C1500   1.412       .  A
C1500      N1501   1.429       .  S
N1501      O1505   1.262       .  A
N1501      O1506   1.262       .  A
N1504      O1508   1.262       .  A
N1504      O1507   1.262       .  A
C1509      C1510   1.407       .  A
C1509      H1516   1.084       .  S
C1510      C1511   1.414       .  A
C1511      N1518   1.433       .  S
C1512      C1513   1.410       .  A
C1512      H1517   1.083       .  S
C1513      C1514   1.414       .  A
C1514      N1515   1.430   1_655  S
N1515      O1520   1.262   1_455  A
N1518      O1522   1.262       .  A
C1523      C1524   1.400       .  A
C1523      H1530   1.084       .  S
C1524      C1525   1.414   1_655  A
C1525      N1532   1.429       .  S
C1526      C1527   1.402       .  A
C1526      H1531   1.084       .  S
C1527      C1528   1.418       .  A
C1528      N1529   1.427       .  S
N1529      O1534   1.261       .  A
N1532      O1535   1.262       .  A
O1537      C1552   1.266       .  A
O1537     Al1545   1.941       .  S
C1538      O1548   1.268       .  A
C1538      O1539   1.256       .  A
C1538      C2022   1.500       .  S
O1539     Al1541   1.869       .  S
O1540      C1542   1.276       .  A
O1540     Al1541   1.972       .  S
Al1541     O1549   1.966       .  S
Al1541     O1551   1.879       .  S
Al1541     O1550   1.763       .  S
C1542      O1555   1.255       .  A
C1542      C1980   1.480       .  S
O1543      C1553   1.267       .  A
O1543     Al1545   1.933       .  S
O1544      C1557   1.275       .  A
O1544     Al1554   1.958       .  S
Al1545     O1558   1.883       .  S
Al1545     O1555   1.851       .  S
Al1545     O1550   1.776       .  S
O1546      C1553   1.251       .  A
O1546     Al1554   1.861       .  S
O1547      C1556   1.254       .  A
O1547     Al1554   1.857       .  S
O1548     Al1554   1.962       .  S
O1549      C1556   1.275       .  A
O1550     Al1554   1.768       .  S
O1551      C1552   1.259       .  A
C1552      C2008   1.486       .  S
C1553      C2039   1.468       .  S
C1556      C1966   1.478       .  S
C1557      O1558   1.261       .  A
C1557      C1994   1.489       .  S
O1559      C1574   1.267       .  A
O1559     Al1567   1.934       .  S
C1560      O1570   1.268       .  A
C1560      O1561   1.259       .  A
C1560      C2025   1.498       .  S
O1561     Al1563   1.893       .  S
O1562      C1564   1.279       .  A
O1562     Al1563   1.984       .  S
Al1563     O1571   1.996       .  S
Al1563     O1573   1.885       .  S
Al1563     O1572   1.763       .  S
C1564      O1577   1.252       .  A
C1564      C1927   1.490       .  S
O1565      C1575   1.269       .  A
O1565     Al1567   1.950       .  S
O1566      C1579   1.269       .  A
Al1567     O1580   1.883       .  S
Al1567     O1577   1.844       .  S
Al1567     O1572   1.775       .  S
O1568      C1575   1.254       .  A
O1568     Al1576   1.857       .  S
O1569      C1578   1.254       .  A
O1569     Al1576   1.854       .  S
O1570     Al1576   1.951       .  S
O1571      C1578   1.281       .  A
O1572     Al1576   1.760       .  S
O1573      C1574   1.260       .  A
C1574      C2011   1.483       .  S
C1575      C1952   1.469       .  S
C1578      C1913   1.483       .  S
C1579      C1938   1.481       .  S
O1581      C1596   1.263       .  A
O1581     Al1589   1.883       .  S
C1582      O1592   1.254       .  A
C1582      O1583   1.267       .  A
C1582      C1899   1.495       .  S
O1583     Al1585   1.939       .  S
O1584      C1586   1.252       .  A
O1584     Al1585   1.873       .  S
Al1585     O1593   1.854       .  S
Al1585     O1595   1.960       .  S
Al1585     O1594   1.764       .  S
C1586      O1599   1.264       .  A
C1586      C2036   1.463       .  S
O1587      C1597   1.256       .  A
O1587     Al1589   1.846       .  S
O1588      C1601   1.260       .  A
O1588     Al1598   1.893       .  S
Al1589     O1602   1.926       .  S
Al1589     O1599   1.937       .  S
Al1589     O1594   1.777       .  S
O1590      C1597   1.275       .  A
O1590     Al1598   1.967       .  S
O1591      C1600   1.277       .  A
O1591     Al1598   1.974       .  S
O1592     Al1598   1.882       .  S
O1593      C1600   1.255       .  A
O1594     Al1598   1.771       .  S
O1595      C1596   1.276       .  A
C1596      C1924   1.485       .  S
C1597      C1941   1.465       .  S
C1600      C1868   1.489       .  S
C1601      O1602   1.265       .  A
C1601      C1885   1.487       .  S
O1603     Al1611   1.896       .  S
C1604      O1614   1.255       .  A
C1604      O1605   1.267       .  A
C1604      C1896   1.495       .  S
O1605     Al1607   1.945       .  S
O1606      C1608   1.253       .  A
O1606     Al1607   1.859       .  S
Al1607     O1615   1.852       .  S
Al1607     O1616   1.761       .  S
C1608      O1621   1.268       .  A
C1608      C1955   1.467       .  S
O1609      C1619   1.253       .  A
O1609     Al1611   1.847       .  S
O1610      C1623   1.259       .  A
O1610     Al1620   1.872       .  S
Al1611     O1624   1.940       .  S
Al1611     O1621   1.940       .  S
Al1611     O1616   1.776       .  S
O1612      C1619   1.276       .  A
O1612     Al1620   1.972       .  S
O1613      C1622   1.280       .  A
O1613     Al1620   1.986       .  S
O1614     Al1620   1.888       .  S
O1615      C1622   1.256       .  A
O1616     Al1620   1.765       .  S
O1617      C1618   1.271   1_554  A
C1618      C1983   1.489       .  S
C1619      C1997   1.478       .  S
C1622      C1854   1.494       .  S
C1623      O1624   1.267       .  A
C1623      C1882   1.484       .  S
O1625     Al1633   1.882       .  S
C1626      O1636   1.253       .  A
C1626      O1627   1.268       .  A
C1626      C1829   1.494       .  S
O1627     Al1629   1.951       .  S
O1628      C1630   1.253       .  A
O1628     Al1629   1.864       .  S
Al1629     O1637   1.844       .  S
Al1629     O1638   1.763       .  S
C1630      O1643   1.269       .  A
C1630      C1784   1.458       .  S
O1631      C1641   1.253       .  A
O1631     Al1633   1.839       .  S
O1632      C1645   1.257       .  A
O1632     Al1642   1.883       .  S
Al1633     O1646   1.939       .  S
Al1633     O1643   1.953       .  S
Al1633     O1638   1.772       .  S
O1634      C1641   1.281       .  A
O1634     Al1642   1.989       .  S
O1635      C1644   1.281       .  A
O1635     Al1642   1.992       .  S
O1636     Al1642   1.874       .  S
O1637      C1644   1.252       .  A
O1638     Al1642   1.765       .  S
O1639      C1640   1.272       .  A
C1640      C1798   1.477       .  S
C1641      C1815   1.488       .  S
C1644      C1910   1.481       .  S
C1645      O1646   1.267       .  A
C1645      C1840   1.489       .  S
O1647      C1662   1.262       .  A
O1647     Al1655   1.885       .  S
C1648      O1658   1.255       .  A
C1648      O1649   1.269       .  A
C1648      C1826   1.495       .  S
O1649     Al1651   1.954       .  S
O1650      C1652   1.253       .  A
O1650     Al1651   1.864       .  S
Al1651     O1659   1.856       .  S
Al1651     O1661   1.961       .  S
Al1651     O1660   1.766       .  S
C1652      O1665   1.269       .  A
C1652      C1742   1.463       .  S
O1653      C1663   1.254       .  A
O1653     Al1655   1.842       .  S
O1654      C1667   1.259       .  A
O1654     Al1664   1.878       .  S
Al1655     O1668   1.945       .  S
Al1655     O1665   1.941       .  S
Al1655     O1660   1.770       .  S
O1656      C1663   1.276       .  A
O1656     Al1664   1.977       .  S
O1657      C1666   1.277       .  A
O1657     Al1664   1.974       .  S
O1658     Al1664   1.877       .  S
O1659      C1666   1.255       .  A
O1660     Al1664   1.766       .  S
O1661      C1662   1.273       .  A
C1662      C1756   1.489       .  S
C1663      C1773   1.486       .  S
C1666      C1969   1.480       .  S
C1667      O1668   1.267       .  A
C1667      C1843   1.484       .  S
O1669      C1684   1.264       .  A
O1669     Al1677   1.919       .  S
C1670      O1680   1.264       .  A
C1670      O1671   1.256       .  A
C1670      C1714   1.495       .  S
O1671     Al1673   1.891       .  S
O1672      C1674   1.276       .  A
O1672     Al1673   1.976       .  S
Al1673     O1681   1.982       .  S
Al1673     O1683   1.890       .  S
Al1673     O1682   1.775       .  S
C1674      O1687   1.255       .  A
C1674      C1759   1.485       .  S
O1675      C1685   1.265       .  A
O1675     Al1677   1.933       .  S
O1676      C1689   1.269       .  A
Al1677     O1690   1.892       .  S
Al1677     O1687   1.845       .  S
Al1677     O1682   1.777       .  S
O1678      C1685   1.254       .  A
O1678     Al1686   1.871       .  S
O1679      C1688   1.257       .  A
O1679     Al1686   1.851       .  S
O1680     Al1686   1.937       .  S
O1681      C1688   1.280       .  A
O1682     Al1686   1.767       .  S
O1683      C1684   1.259       .  A
C1684      C1728   1.486       .  S
C1685      C1787   1.450       .  S
C1688      C1857   1.490       .  S
C1689      C1770   1.485       .  S
O1691      C1706   1.264       .  A
O1691     Al1699   1.930       .  S
C1692      O1702   1.267       .  A
C1692      O1693   1.256       .  A
C1692      C1717   1.495       .  S
O1693     Al1695   1.876       .  S
O1694      C1696   1.277       .  A
O1694     Al1695   1.984       .  S
Al1695     O1703   1.979       .  S
Al1695     O1705   1.879       .  S
Al1695     O1704   1.770       .  S
C1696      O1709   1.251       .  A
C1696      C1801   1.482       .  S
O1697      C1707   1.266       .  A
O1697     Al1699   1.932       .  S
O1698      C1711   1.275       .  A
O1698     Al1708   1.962       .  S
Al1699     O1712   1.882       .  S
Al1699     O1709   1.823       .  S
Al1699     O1704   1.772       .  S
O1700      C1707   1.254       .  A
O1700     Al1708   1.870       .  S
O1701      C1710   1.256       .  A
O1701     Al1708   1.853       .  S
O1702     Al1708   1.951       .  S
O1703      C1710   1.278       .  A
O1704     Al1708   1.764       .  S
O1705      C1706   1.259       .  A
C1706      C1731   1.485       .  S
C1707      C1745   1.460       .  S
C1710      C1871   1.488       .  S
C1711      O1712   1.260       .  A
C1711      C1812   1.489       .  S
C1713      C1714   1.411       .  A
C1713      C1718   1.407       .  A
C1713      H1720   1.084       .  S
C1714      C1715   1.413       .  A
C1715      C1716   1.401       .  A
C1715      N1722   1.430       .  S
C1716      C1717   1.409       .  A
C1716      H1721   1.084       .  S
C1717      C1718   1.412       .  A
C1718      N1719   1.430       .  S
N1719      O1723   1.261       .  A
N1719      O1724   1.262       .  A
N1722      O1726   1.262       .  A
N1722      O1725   1.261       .  A
C1727      C1728   1.406       .  A
C1727      H1734   1.084       .  S
C1728      C1729   1.415       .  A
C1729      N1736   1.429       .  S
C1730      C1731   1.404       .  A
C1730      H1735   1.084       .  S
C1731      C1732   1.414       .  A
C1732      N1733   1.429       .  S
N1733      O1737   1.262   1_545  A
N1733      O1738   1.262       .  A
N1736      O1740   1.262       .  A
N1736      O1739   1.262       .  A
C1741      C1742   1.402   1_545  A
C1741      C1746   1.393       .  A
C1741      H1748   1.084       .  S
C1742      C1743   1.412       .  A
C1743      C1744   1.391       .  A
C1743      N1750   1.428       .  S
C1744      C1745   1.400   1_565  A
C1744      H1749   1.085       .  S
C1745      C1746   1.409       .  A
C1746      N1747   1.431       .  S
N1747      O1751   1.261       .  A
N1747      O1752   1.262       .  A
N1750      O1754   1.261       .  A
N1750      O1753   1.261       .  A
C1755      C1756   1.413   1_545  A
C1755      C1760   1.406       .  A
C1755      H1762   1.083       .  S
C1756      C1757   1.410       .  A
C1757      C1758   1.396       .  A
C1757      N1764   1.429       .  S
C1758      C1759   1.409   1_565  A
C1758      H1763   1.084       .  S
C1759      C1760   1.407       .  A
C1760      N1761   1.428       .  S
N1761      O1765   1.262       .  A
N1761      O1766   1.262       .  A
N1764      O1768   1.261       .  A
N1764      O1767   1.262       .  A
C1769      C1770   1.413   1_565  A
C1769      C1774   1.408       .  A
C1769      H1776   1.083       .  S
C1770      C1771   1.409       .  A
C1771      C1772   1.393       .  A
C1771      N1778   1.430       .  S
C1772      C1773   1.409   1_545  A
C1772      H1777   1.084       .  S
C1773      C1774   1.408       .  A
C1774      N1775   1.429       .  S
N1775      O1779   1.261       .  A
N1775      O1780   1.262       .  A
N1778      O1782   1.262       .  A
N1778      O1781   1.262       .  A
C1783      C1788   1.397       .  A
C1783      H1790   1.084       .  S
C1784      C1785   1.410       .  A
C1785      C1786   1.391       .  A
C1785      N1792   1.430       .  S
C1786      H1791   1.084       .  S
C1787      C1788   1.403       .  A
C1788      N1789   1.432       .  S
N1789      O1793   1.261       .  A
N1789      O1794   1.262       .  A
N1792      O1796   1.261       .  A
N1792      O1795   1.261       .  A
C1797      C1798   1.412   1_545  A
C1797      C1802   1.403       .  A
C1797      H1804   1.084       .  S
C1798      C1799   1.405       .  A
C1799      C1800   1.390       .  A
C1799      N1806   1.430       .  S
C1800      C1801   1.412   1_565  A
C1800      H1805   1.084       .  S
C1801      C1802   1.405       .  A
C1802      N1803   1.428       .  S
N1803      O1807   1.262       .  A
N1803      O1808   1.262       .  A
N1806      O1810   1.262       .  A
N1806      O1809   1.262       .  A
C1811      C1812   1.398       .  A
C1811      C1816   1.396       .  A
C1811      H1818   1.084       .  S
C1812      C1813   1.421   1_545  A
C1813      C1814   1.406       .  A
C1813      N1820   1.429       .  S
C1814      C1815   1.401       .  A
C1814      H1819   1.084       .  S
C1815      C1816   1.422   1_565  A
C1816      N1817   1.431       .  S
N1817      O1821   1.261       .  A
N1817      O1822   1.262       .  A
N1820      O1824   1.262       .  A
N1820      O1823   1.262       .  A
C1825      C1826   1.403       .  A
C1825      C1830   1.404       .  A
C1825      H1832   1.083       .  S
C1826      C1827   1.418       .  A
C1827      C1828   1.403       .  A
C1827      N1834   1.429       .  S
C1828      C1829   1.402       .  A
C1828      H1833   1.084       .  S
C1829      C1830   1.420       .  A
C1830      N1831   1.430       .  S
N1831      O1835   1.262       .  A
N1831      O1836   1.262       .  A
N1834      O1838   1.262       .  A
N1834      O1837   1.262       .  A
C1839      C1840   1.406       .  A
C1839      H1846   1.084       .  S
C1840      C1841   1.417       .  A
C1841      N1848   1.430       .  S
C1842      C1843   1.404       .  A
C1842      H1847   1.084       .  S
C1843      C1844   1.413       .  A
C1844      N1845   1.429       .  S
N1845      O1849   1.262       .  A
N1845      O1850   1.262   1_565  A
N1848      O1852   1.262       .  A
N1848      O1851   1.262       .  A
C1853      C1858   1.402       .  A
C1853      H1860   1.084       .  S
C1854      C1855   1.407       .  A
C1855      N1862   1.428       .  S
C1856      C1857   1.413   1_554  A
C1856      H1861   1.084       .  S
C1857      C1858   1.407       .  A
C1858      N1859   1.428       .  S
N1859      O1863   1.262       .  A
N1859      O1864   1.262       .  A
N1862      O1866   1.262       .  A
N1862      O1865   1.262       .  A
C1867      C1868   1.414       .  A
C1867      C1872   1.405       .  A
C1867      H1874   1.084       .  S
C1868      C1869   1.404       .  A
C1869      C1870   1.400       .  A
C1869      N1876   1.426       .  S
C1870      C1871   1.411       .  A
C1870      H1875   1.084       .  S
C1871      C1872   1.406       .  A
C1872      N1873   1.429       .  S
N1873      O1877   1.262       .  A
N1873      O1878   1.262       .  A
N1876      O1880   1.261       .  A
N1876      O1879   1.262       .  A
C1881      C1882   1.403       .  A
C1881      C1886   1.395       .  A
C1881      H1888   1.084       .  S
C1882      C1883   1.412       .  A
C1883      C1884   1.403       .  A
C1883      N1890   1.429       .  S
C1884      C1885   1.408       .  A
C1884      H1889   1.084       .  S
C1885      C1886   1.415       .  A
C1886      N1887   1.429       .  S
N1887      O1891   1.261       .  A
N1887      O1892   1.262       .  A
N1890      O1894   1.262       .  A
N1890      O1893   1.262       .  A
C1895      C1900   1.403       .  A
C1895      H1902   1.084       .  S
C1896      C1897   1.417       .  A
C1897      C1898   1.406       .  A
C1897      N1904   1.429       .  S
C1898      H1903   1.083       .  S
C1899      C1900   1.421       .  A
C1900      N1901   1.429       .  S
N1901      O1905   1.262       .  A
N1901      O1906   1.262       .  A
N1904      O1908   1.262       .  A
N1904      O1907   1.262       .  A
C1909      C1910   1.399       .  A
C1909      C1914   1.404       .  A
C1909      H1916   1.084       .  S
C1911      C1912   1.406       .  A
C1911      N1918   1.429       .  S
C1912      C1913   1.400       .  A
C1912      H1917   1.084       .  S
C1914      N1915   1.430       .  S
N1915      O1919   1.262       .  A
N1918      O1922   1.261       .  A
C1923      C1924   1.398       .  A
C1923      C1928   1.398       .  A
C1923      H1930   1.084       .  S
C1924      C1925   1.419       .  A
C1925      C1926   1.403       .  A
C1925      N1932   1.428       .  S
C1926      C1927   1.401       .  A
C1926      H1931   1.084       .  S
C1927      C1928   1.424       .  A
C1928      N1929   1.430       .  S
N1929      O1933   1.262       .  A
N1929      O1934   1.262       .  A
N1932      O1936   1.262       .  A
N1932      O1935   1.262       .  A
C1937      C1938   1.405       .  A
C1937      C1942   1.391       .  A
C1937      H1944   1.084       .  S
C1938      C1939   1.416       .  A
C1939      C1940   1.403       .  A
C1939      N1946   1.429       .  S
C1940      C1941   1.400       .  A
C1940      H1945   1.084       .  S
C1941      C1942   1.409       .  A
C1942      N1943   1.431       .  S
N1943      O1947   1.262       .  A
N1943      O1948   1.262       .  A
C1951      C1952   1.408       .  A
C1951      H1958   1.080       .  S
C1953      N1960   1.429       .  S
C1954      C1955   1.410       .  A
C1954      H1959   1.089       .  S
C1956      N1957   1.430       .  S
N1957      O1961   1.261       .  A
N1957      O1962   1.262       .  A
N1960      O1964   1.262       .  A
N1960      O1963   1.262       .  A
C1965      C1966   1.398       .  A
C1965      C1970   1.401       .  A
C1965      H1972   1.084       .  S
C1966      C1967   1.416       .  A
C1967      C1968   1.402       .  A
C1967      N1974   1.430       .  S
C1968      C1969   1.399       .  A
C1968      H1973   1.084       .  S
C1969      C1970   1.417       .  A
C1970      N1971   1.429       .  S
N1971      O1975   1.262       .  A
N1971      O1976   1.261       .  A
N1974      O1978   1.262       .  A
N1974      O1977   1.262       .  A
C1979      C1980   1.400       .  A
C1979      C1984   1.404       .  A
C1979      H1986   1.084       .  S
C1980      C1981   1.415       .  A
C1981      C1982   1.396       .  A
C1981      N1988   1.431       .  S
C1982      C1983   1.403       .  A
C1982      H1987   1.084       .  S
C1983      C1984   1.420       .  A
C1984      N1985   1.428       .  S
N1985      O1989   1.262   1_556  A
N1985      O1990   1.262   1_556  A
N1988      O1992   1.262       .  A
N1988      O1991   1.262       .  A
C1993      C1994   1.403       .  A
C1993      C1998   1.397       .  A
C1993      H2000   1.084       .  S
C1994      C1995   1.420       .  A
C1995      C1996   1.403       .  A
C1995      N2002   1.427       .  S
C1996      C1997   1.398       .  A
C1996      H2001   1.084       .  S
C1997      C1998   1.416       .  A
C1998      N1999   1.431       .  S
N1999      O2003   1.261       .  A
N1999      O2004   1.262       .  A
N2002      O2006   1.262       .  A
N2002      O2005   1.262       .  A
C2007      C2008   1.406       .  A
C2007      C2012   1.395       .  A
C2007      H2014   1.084       .  S
C2008      C2009   1.413       .  A
C2009      C2010   1.404       .  A
C2009      N2016   1.428       .  S
C2010      C2011   1.406       .  A
C2010      H2015   1.084       .  S
C2011      C2012   1.411       .  A
C2012      N2013   1.429       .  S
N2013      O2017   1.262       .  A
N2013      O2018   1.261       .  A
N2016      O2020   1.262       .  A
N2016      O2019   1.261       .  A
C2021      C2022   1.407       .  A
C2021      H2028   1.084       .  S
C2022      C2023   1.415       .  A
C2023      N2030   1.431       .  S
C2024      C2025   1.411       .  A
C2024      H2029   1.083       .  S
C2025      C2026   1.414       .  A
C2026      N2027   1.429   1_655  S
N2027      O2032   1.262   1_455  A
N2030      O2034   1.262       .  A
C2035      C2036   1.404       .  A
C2035      H2042   1.084       .  S
C2036      C2037   1.408       .  A
C2037      N2044   1.430   1_655  S
C2038      C2039   1.401       .  A
C2038      H2043   1.084       .  S
C2039      C2040   1.415       .  A
C2040      N2041   1.428       .  S
N2041      O2046   1.262       .  A
N2044      O2047   1.262       .  A
