geometry optimzed in LAMMPS
_audit_creation_date              2020-12-01 
_audit_creation_method            'lammps2cif' 
_symmetry_space_group_name_H-M    'P1' 
_symmetry_Int_Tables_number       1 
_symmetry_cell_setting            triclinic 
loop_ 
_symmetry_equiv_pos_as_xyz 
  x,y,z 
_cell_length_a                    28.25176801 
_cell_length_b                    44.58621946989685 
_cell_length_c                    28.870151304489976 
_cell_angle_alpha                 90.33568771531391 
_cell_angle_beta                  90.1027812582987 
_cell_angle_gamma                 89.86960174245012 
loop_ 
_atom_site_label 
_atom_site_type_symbol 
_atom_site_fract_x 
_atom_site_fract_y 
_atom_site_fract_z 
_atom_site_charge 
O1          O  0.90643623  0.64313712  0.92453562    -0.84900
O2          O  0.91902328  0.69759251  0.96437002    -0.82000
C3          C  0.91239387  0.72370585  0.97925122     0.98500
O4          O  0.87082718  0.73300815  0.98687825    -0.82000
O5          O  0.82418138  0.73192581  0.90154908    -0.84700
C6          C  0.80213337  0.72216849  0.86653886     1.03000
O7          O  0.78403305  0.69614169  0.86718288    -0.77400
O8          O  0.86094094  0.65885197  0.86782984    -0.77600
C9          C  0.89974181  0.64816373  0.88159846     1.03000
O10         O  0.84072391  0.62873885  0.00008604    -0.84900
O11         O  0.85918923  0.68313371  0.04274551    -0.82000
C12         C  0.82057133  0.69518507  0.05610516     0.98500
O13         O  0.79071041  0.70419022  0.02683871    -0.82000
O14         O  0.74148014  0.70833546  0.94545793    -0.84600
C15         C  0.71864941  0.68393950  0.94325116     1.03000
O16         O  0.74023619  0.65949122  0.93648737    -0.77500
O17         O  0.81488294  0.61827630  0.93038457    -0.77600
C18         C  0.82440670  0.61010199  0.97139331     1.03000
Cr19       Cr  0.87745459  0.66424252  0.98066359     1.93700
Cr20       Cr  0.80859897  0.71649271  0.96391233     1.93200
Cr21       Cr  0.80207342  0.65960301  0.90419975     1.39100
O22         O  0.82935885  0.67997927  0.94984211    -1.22700
O23         O  0.90023025  0.35594960  0.11506766    -0.84900
O24         O  0.91781705  0.30247722  0.07151877    -0.82000
C25         C  0.91067335  0.27650908  0.05561997     0.98500
O26         O  0.86928495  0.26774740  0.04648645    -0.82000
O27         O  0.81692055  0.26692445  0.12663409    -0.84700
C28         C  0.79257303  0.27557101  0.16056484     1.03000
O29         O  0.77393345  0.30152710  0.16034035    -0.77400
O30         O  0.85286301  0.33772265  0.16782829    -0.77600
C31         C  0.89215465  0.34913315  0.15701344     1.03000
O32         O  0.83969065  0.37278735  0.03762260    -0.84900
O33         O  0.86348564  0.31961737  0.99205004    -0.82000
C34         C  0.82709139  0.30668346  0.97576723     0.98500
O35         O  0.79430087  0.29838548  0.00203598    -0.82000
O36         O  0.73783127  0.29338717  0.07709654    -0.84600
C37         C  0.71700844  0.31856751  0.07600349     1.03000
O38         O  0.73764440  0.34195392  0.09008578    -0.77500
O39         O  0.81200138  0.38112909  0.10718713    -0.77600
C40         C  0.82242410  0.39057537  0.06723276     1.03000
Cr41       Cr  0.87626200  0.33665603  0.05608031     1.93700
Cr42       Cr  0.80617817  0.28434261  0.06481999     1.93200
Cr43       Cr  0.79626246  0.33916252  0.12793350     1.39100
O44         O  0.82651024  0.32005790  0.08276923    -1.22700
O45         O  0.39991867  0.14466760  0.92226749    -0.84900
O46         O  0.42154539  0.19706623  0.96642636    -0.82000
C47         C  0.41685343  0.22276963  0.98401888     0.98500
O48         O  0.37648119  0.23174027  0.99636756    -0.82000
O49         O  0.32211390  0.23604608  0.91556553    -0.84700
C50         C  0.29504748  0.22847685  0.88265194     1.03000
O51         O  0.27600327  0.20270098  0.88259935    -0.77400
O52         O  0.34969699  0.16270661  0.87119962    -0.77600
C53         C  0.38934692  0.15096650  0.88066181     1.03000
O54         O  0.34237108  0.12739182  0.00039374    -0.84900
O55         O  0.36794534  0.17946116  0.04749645    -0.82000
C56         C  0.33117435  0.19142445  0.06499039     0.98500
O57         O  0.29967551  0.20242329  0.03946017    -0.82000
O58         O  0.24347431  0.21304445  0.96481212    -0.84600
C59         C  0.21976790  0.18929901  0.96827405     1.03000
O60         O  0.23735954  0.16467610  0.95451545    -0.77500
O61         O  0.30691482  0.12180848  0.93361678    -0.77600
C62         C  0.32192067  0.11076801  0.97109190     1.03000
Cr63       Cr  0.37884878  0.16353993  0.98228743     1.93700
Cr64       Cr  0.31212617  0.21796035  0.97734271     1.93200
Cr65       Cr  0.29484457  0.16423282  0.91391876     1.39100
O66         O  0.32903098  0.18179953  0.95769755    -1.22700
O67         O  0.42427181  0.83142374  0.09035432    -0.84900
O68         O  0.42410859  0.78930559  0.02153802    -0.82000
C69         C  0.41759223  0.76505978  0.04320822     0.98500
O70         O  0.37890892  0.76008231  0.06322582    -0.82000
O71         O  0.28925056  0.76941661  0.09855179    -0.84700
C72         C  0.29535059  0.78044898  0.13838043     1.03000
O73         O  0.31184655  0.80646259  0.14322306    -0.77400
O74         O  0.36632900  0.85560531  0.12505839    -0.77600
C75         C  0.40878450  0.84616373  0.12457786     1.03000
O76         O  0.37558267  0.87312233  0.03237004    -0.84900
O77         O  0.36424785  0.82794980  0.96630841    -0.82000
C78         C  0.35228778  0.80296093  0.94912616     0.98500
O79         O  0.34722034  0.78038973  0.97476935    -0.82000
O80         O  0.26265073  0.79580345  0.01282918    -0.84600
C81         C  0.23200049  0.80969119  0.03611577     1.03000
O82         O  0.24433215  0.82334034  0.07291874    -0.77500
O83         O  0.30118305  0.87187699  0.05168652    -0.77600
C84         C  0.33606337  0.88621995  0.03612457     1.03000
Cr85       Cr  0.39309401  0.82953744  0.02937471     1.93700
Cr86       Cr  0.32105877  0.77931712  0.03885525     1.93200
Cr87       Cr  0.30837128  0.83766804  0.09493111     1.39100
O88         O  0.34074868  0.81560264  0.05471755    -1.22700
O89         O  0.13662219  0.34148890  0.43636008    -0.84900
O90         O  0.14026555  0.29884443  0.50433159    -0.82000
C91         C  0.14167067  0.27422763  0.48210691     0.98500
O92         O  0.17809392  0.26655967  0.45974357    -0.82000
O93         O  0.26559964  0.27092518  0.41665596    -0.84700
C94         C  0.25507963  0.28001348  0.37670309     1.03000
O95         O  0.23850676  0.30608402  0.37189031    -0.77400
O96         O  0.19337604  0.35932938  0.39249272    -0.77600
C97         C  0.14992523  0.35431180  0.39967685     1.03000
O98         O  0.19848538  0.37941749  0.48761887    -0.84900
O99         O  0.21117809  0.33478646  0.55303071    -0.82000
C100        C  0.22196221  0.30957420  0.56981093     0.98500
O101        O  0.21954017  0.28670150  0.54411797    -0.82000
O102        O  0.30165876  0.29894553  0.49809969    -0.84600
C103        C  0.32990955  0.31207638  0.47134670     1.03000
O104        O  0.31583284  0.32282291  0.43314291    -0.77500
O105        O  0.26826221  0.37426673  0.45527497    -0.77600
C106        C  0.23806975  0.39006748  0.47613876     1.03000
Cr107      Cr  0.17522678  0.33738511  0.49325207     1.93700
Cr108      Cr  0.23987264  0.28361894  0.47816983     1.93200
Cr109      Cr  0.25160763  0.33903121  0.41674019     1.39100
O110        O  0.22207221  0.32022861  0.46227780    -1.22700
O111        O  0.12343690  0.66650642  0.57748537    -0.84900
O112        O  0.13619111  0.70825440  0.50772447    -0.82000
C113        C  0.14001993  0.73350180  0.52780446     0.98500
O114        O  0.17494409  0.73881252  0.55392335    -0.82000
O115        O  0.25755153  0.72896798  0.60407529    -0.84700
C116        C  0.24645405  0.71909081  0.64332987     1.03000
O117        O  0.22739999  0.69371843  0.64646740    -0.77400
O118        O  0.17581200  0.64436492  0.62203131    -0.77600
C119        C  0.13359821  0.65296876  0.61469564     1.03000
O120        O  0.18195768  0.62472490  0.52848412    -0.84900
O121        O  0.20345287  0.66871289  0.46323832    -0.82000
C122        C  0.21913091  0.69326279  0.44766619     0.98500
O123        O  0.22045283  0.71599840  0.47369669    -0.82000
O124        O  0.29746045  0.70015281  0.52514356    -0.84600
C125        C  0.32310100  0.68603924  0.55330871     1.03000
O126        O  0.30525577  0.67434178  0.58914423    -0.77500
O127        O  0.25188947  0.62651923  0.56059557    -0.77600
C128        C  0.22039060  0.61205063  0.53938853     1.03000
Cr129      Cr  0.16492229  0.66805359  0.52171546     1.93700
Cr130      Cr  0.23575676  0.71812258  0.54068625     1.93200
Cr131      Cr  0.23791970  0.66140657  0.60070858     1.39100
O132        O  0.21266595  0.68249203  0.55479080    -1.22700
O133        O  0.63414962  0.16136701  0.60553778    -0.84900
O134        O  0.63400848  0.20406631  0.53843429    -0.82000
C135        C  0.63452496  0.22809207  0.56217018     0.98500
O136        O  0.67088811  0.23545813  0.58482693    -0.82000
O137        O  0.76069642  0.23273837  0.62363089    -0.84700
C138        C  0.75457559  0.22185326  0.66317554     1.03000
O139        O  0.74023945  0.19541411  0.66780511    -0.77400
O140        O  0.69285352  0.14367900  0.64807479    -0.77600
C141        C  0.64894574  0.14891330  0.64201629     1.03000
O142        O  0.69357681  0.12372420  0.55245077    -0.84900
O143        O  0.70608102  0.16929582  0.48817642    -0.82000
C144        C  0.71626567  0.19487631  0.47246463     0.98500
O145        O  0.70968643  0.21738889  0.49814596    -0.82000
O146        O  0.79479514  0.20800676  0.54019896    -0.84600
C147        C  0.82547039  0.19563434  0.56525248     1.03000
O148        O  0.81396868  0.18083576  0.60108076    -0.77500
O149        O  0.76542206  0.12895571  0.57956340    -0.77600
C150        C  0.73405321  0.11313232  0.56051881     1.03000
Cr151      Cr  0.67062215  0.16589144  0.54796994     1.93700
Cr152      Cr  0.73275146  0.22050416  0.56310079     1.93200
Cr153      Cr  0.75066615  0.16364346  0.62073175     1.39100
O154        O  0.71805866  0.18316042  0.57796446    -1.22700
O155        O  0.62610597  0.83917930  0.43004527    -0.84900
O156        O  0.63075266  0.80002088  0.50274309    -0.82000
C157        C  0.63176470  0.77537375  0.48099636     0.98500
O158        O  0.66772811  0.76824543  0.45759957    -0.82000
O159        O  0.75100733  0.77425963  0.40820816    -0.84700
C160        C  0.74088344  0.78523209  0.36907733     1.03000
O161        O  0.72769403  0.81215190  0.36690712    -0.77400
O162        O  0.68052500  0.86296374  0.39053477    -0.77600
C163        C  0.63906861  0.85228923  0.39359402     1.03000
O164        O  0.68267354  0.88145679  0.48071554    -0.84900
O165        O  0.69808690  0.83806650  0.54800694    -0.82000
C166        C  0.71133616  0.81336366  0.56506818     0.98500
O167        O  0.71449877  0.79002094  0.54002234    -0.82000
O168        O  0.79330490  0.80060270  0.48940604    -0.84600
C169        C  0.82147375  0.81255423  0.46141882     1.03000
O170        O  0.80590808  0.82706503  0.42691455    -0.77500
O171        O  0.75542823  0.87771040  0.45623701    -0.77600
C172        C  0.72278596  0.89317495  0.47436382     1.03000
Cr173      Cr  0.66309371  0.83870847  0.48813733     1.93700
Cr174      Cr  0.73019675  0.78612800  0.47247381     1.93200
Cr175      Cr  0.74039062  0.84345168  0.41393402     1.39100
O176        O  0.71160940  0.82280932  0.45819052    -1.22700
C177        C  0.72945945  0.02838843  0.56921623    -0.05100
C178        C  0.74577153  0.01957950  0.52499210     0.09100
C179        C  0.76252918  0.04152100  0.49400811    -0.02400
C180        C  0.76131535  0.07221553  0.50656304    -0.00700
C181        C  0.74281405  0.08106213  0.54992169    -0.04300
C182        C  0.72734874  0.05903671  0.58140011     0.02700
C183        C  0.74124224  0.98745309  0.50990824     0.09500
C184        C  0.77945136  0.03250626  0.44865063     0.35400
C185        C  0.70744507  0.06795944  0.62571195     0.38900
C186        C  0.69751372  0.97694109  0.49296510    -0.04700
C187        C  0.69161525  0.94639813  0.48130286     0.02500
C188        C  0.72975492  0.92574183  0.48631565    -0.04300
C189        C  0.77363240  0.93654336  0.50360489    -0.00500
C190        C  0.77935609  0.96728582  0.51483983    -0.03100
C191        C  0.65819504  0.99772253  0.48797677     0.36200
C192        C  0.81210081  0.91596679  0.51319299     0.39800
C193        C  0.64568678  0.93656409  0.46455735     0.38900
C194        C  0.82426482  0.97824040  0.53241587     0.35800
C195        C  0.71361574  0.00585398  0.60170751     0.36500
C196        C  0.77741235  0.09478634  0.47428922     0.39800
N197        N  0.60874854  0.92884420  0.45189654    -0.38300
N198        N  0.62686425  0.01428934  0.48409718    -0.39900
N199        N  0.84311913  0.89996605  0.52184208    -0.37600
N200        N  0.86003492  0.98715431  0.54634292    -0.40000
N201        N  0.79288134  0.02522324  0.41244082    -0.39800
N202        N  0.79035774  0.11282376  0.44860602    -0.37400
N203        N  0.69126414  0.07490255  0.66099051    -0.38500
N204        N  0.70108951  0.98784852  0.62763764    -0.40100
C205        C  0.45314942  0.70406694  0.56746364    -0.05100
C206        C  0.46828844  0.70189088  0.52097129     0.09100
C207        C  0.43881705  0.68808341  0.48776621    -0.02400
C208        C  0.39221788  0.67995729  0.49960462    -0.00700
C209        C  0.37502189  0.68545593  0.54489940    -0.04300
C210        C  0.40683222  0.69529830  0.57964851     0.02700
C211        C  0.51092646  0.71896119  0.50561990     0.09500
C212        C  0.45557261  0.68407815  0.44067912     0.35400
C213        C  0.39124825  0.69828951  0.62731091     0.38900
C214        C  0.55689921  0.70682724  0.50945954    -0.04700
C215        C  0.59677735  0.72468619  0.49901121     0.02500
C216        C  0.59063131  0.75485355  0.48508348    -0.04300
C217        C  0.54431577  0.76634160  0.47917734    -0.00500
C218        C  0.50478561  0.74837348  0.48895858    -0.03100
C219        C  0.56298605  0.67616651  0.52478842     0.36200
C220        C  0.53680127  0.79680945  0.46329020     0.39800
C221        C  0.64400895  0.71248847  0.50504469     0.38900
C222        C  0.45746504  0.76044600  0.48263949     0.35800
C223        C  0.48404406  0.71748722  0.60195719     0.36500
C224        C  0.36158804  0.66659814  0.46481968     0.39800
N225        N  0.68170308  0.70276327  0.50985663    -0.38300
N226        N  0.56778227  0.65164938  0.53692216    -0.39900
N227        N  0.52971410  0.82103284  0.45082065    -0.37600
N228        N  0.41988134  0.77018955  0.47730577    -0.40000
N229        N  0.46901606  0.68092688  0.40312681    -0.39800
N230        N  0.33727611  0.65581393  0.43705716    -0.37400
N231        N  0.37907516  0.70041551  0.66544578    -0.38500
N232        N  0.50868432  0.72834322  0.62936608    -0.40100
C233        C  0.03907050  0.78924442  0.54348847    -0.05100
C234        C  0.02068456  0.78963222  0.49799233     0.09100
C235        C  0.04707418  0.77688812  0.46151224    -0.02400
C236        C  0.08912840  0.76113932  0.47111052    -0.00700
C237        C  0.10399048  0.75692985  0.51751300    -0.04300
C238        C  0.08065919  0.77275903  0.55340027     0.02700
C239        C  0.96971741  0.79692492  0.48986191     0.09500
C240        C  0.02883317  0.77790987  0.41450284     0.35400
C241        C  0.09702174  0.77014474  0.60083008     0.38900
C242        C  0.95519996  0.82510571  0.47291534    -0.04700
C243        C  0.90703551  0.83027346  0.46176823     0.02500
C244        C  0.87311343  0.80737385  0.46862026    -0.04300
C245        C  0.88848835  0.77883496  0.48414668    -0.00500
C246        C  0.93625072  0.77385177  0.49521336    -0.03100
C247        C  0.98986406  0.84869390  0.46716645     0.36200
C248        C  0.85573225  0.75381894  0.48667577     0.39800
C249        C  0.89279598  0.85898330  0.44296452     0.38900
C250        C  0.95124576  0.74453572  0.51142879     0.35800
C251        C  0.01339165  0.80425338  0.58036959     0.36500
C252        C  0.11669850  0.74901721  0.43297163     0.39800
N253        N  0.88175377  0.88181206  0.42736176    -0.38300
N254        N  0.01751414  0.86757086  0.46275908    -0.39900
N255        N  0.82981613  0.73381153  0.48872740    -0.37600
N256        N  0.96301666  0.72114645  0.52428899    -0.40000
N257        N  0.01402200  0.77853809  0.37711096    -0.39800
N258        N  0.13838610  0.73981586  0.40203285    -0.37400
N259        N  0.10989506  0.76778361  0.63872804    -0.38500
N260        N  0.99288586  0.81638778  0.60967270    -0.40100
C261        C  0.55997004  0.29541635  0.52973641    -0.05100
C262        C  0.51417575  0.28356422  0.53528509     0.09100
C263        C  0.50800756  0.25511684  0.55551043    -0.02400
C264        C  0.54763775  0.23764410  0.56714471    -0.00700
C265        C  0.59364784  0.24864500  0.55904566    -0.04300
C266        C  0.59980141  0.27805551  0.54193769     0.02700
C267        C  0.47204953  0.29926771  0.51613826     0.09500
C268        C  0.46071501  0.24324961  0.56239609     0.35400
C269        C  0.64696864  0.28970753  0.53394617     0.38900
C270        C  0.46095971  0.29588925  0.46871158    -0.04700
C271        C  0.41534346  0.30315048  0.45259526     0.02500
C272        C  0.38048982  0.31290752  0.48432996    -0.04300
C273        C  0.39342723  0.31957236  0.53062619    -0.00500
C274        C  0.43931263  0.31285617  0.54643207    -0.03100
C275        C  0.49531204  0.28271840  0.43725586     0.36200
C276        C  0.35929248  0.33271831  0.56234208     0.39800
C277        C  0.40360959  0.29849053  0.40413597     0.38900
C278        C  0.45200985  0.31801885  0.59453711     0.35800
C279        C  0.56595123  0.32485767  0.50950712     0.36500
C280        C  0.54073681  0.20810191  0.58670853     0.39800
N281        N  0.39436781  0.29495405  0.36541251    -0.38300
N282        N  0.52267076  0.27215085  0.41219799    -0.39900
N283        N  0.33235722  0.34327173  0.58783738    -0.37600
N284        N  0.46211610  0.32205366  0.63293494    -0.40000
N285        N  0.42299048  0.23387724  0.56796010    -0.39800
N286        N  0.53417235  0.18463678  0.60225220    -0.37400
N287        N  0.68462725  0.29898655  0.52761135    -0.38500
N288        N  0.57063085  0.34827582  0.49308883    -0.40100
C289        C  0.05436261  0.22063470  0.53511075    -0.05100
C290        C  0.01528731  0.22421479  0.50516049     0.09100
C291        C  0.02049860  0.24050494  0.46363073    -0.02400
C292        C  0.06338949  0.25538870  0.45422937    -0.00700
C293        C  0.10117628  0.25363536  0.48603997    -0.04300
C294        C  0.09732538  0.23527504  0.52549462     0.02700
C295        C  0.96699864  0.21585551  0.52154898     0.09500
C296        C  0.98067169  0.24343429  0.43219319     0.35400
C297        C  0.13677186  0.23276066  0.55752467     0.38900
C298        C  0.93799772  0.23836734  0.54109977    -0.04700
C299        C  0.89226574  0.23134929  0.55658442     0.02500
C300        C  0.87554769  0.20152838  0.55388896    -0.04300
C301        C  0.90492414  0.17878944  0.53546877    -0.00500
C302        C  0.95051865  0.18602116  0.51882941    -0.03100
C303        C  0.95529795  0.26893580  0.54501980     0.36200
C304        C  0.88759689  0.14828110  0.53214488     0.39800
C305        C  0.86234446  0.25503677  0.57519117     0.38900
C306        C  0.98003099  0.16306368  0.49788704     0.35800
C307        C  0.04925419  0.20360691  0.57745904     0.36500
C308        C  0.06784281  0.27391497  0.41333229     0.39800
N309        N  0.83880282  0.27411156  0.58987530    -0.38300
N310        N  0.96924509  0.29325822  0.54799287    -0.39900
N311        N  0.87382832  0.12390244  0.52959004    -0.37600
N312        N  0.00357016  0.14477585  0.48097951    -0.40000
N313        N  0.94873150  0.24576784  0.40730106    -0.39800
N314        N  0.07163110  0.28877552  0.38082523    -0.37400
N315        N  0.16813277  0.23069616  0.58316998    -0.38500
N316        N  0.04508082  0.19005763  0.61126704    -0.40100
C317        C  0.24695100  0.47365854  0.45581016    -0.05100
C318        C  0.24625703  0.48464560  0.50171281     0.09100
C319        C  0.24836447  0.46442148  0.53910206    -0.02400
C320        C  0.24926730  0.43327689  0.53059886    -0.00700
C321        C  0.24706772  0.42224187  0.48479113    -0.04300
C322        C  0.24718048  0.44248918  0.44731268     0.02700
C323        C  0.23997434  0.51743301  0.51073264     0.09500
C324        C  0.24779715  0.47568146  0.58633229     0.35400
C325        C  0.24476810  0.43132232  0.40006044     0.38900
C326        C  0.19478783  0.52871422  0.52195220    -0.04700
C327        C  0.18856508  0.55942055  0.53201111     0.02500
C328        C  0.22736397  0.57948845  0.52903203    -0.04300
C329        C  0.27265722  0.56799693  0.51713158    -0.00500
C330        C  0.27882679  0.53708216  0.50815714    -0.03100
C331        C  0.15445722  0.50859463  0.52266005     0.36200
C332        C  0.31320355  0.58773794  0.51368201     0.39800
C333        C  0.14253392  0.56982743  0.54768235     0.38900
C334        C  0.32514023  0.52539144  0.49590551     0.35800
C335        C  0.24518918  0.49450589  0.41744863     0.36500
C336        C  0.25260810  0.41254345  0.56895306     0.39800
N337        N  0.10587208  0.57803748  0.56043682    -0.38300
N338        N  0.12234636  0.49253411  0.52290985    -0.39900
N339        N  0.34603202  0.60309614  0.51122509    -0.37600
N340        N  0.36201220  0.51604902  0.48589636    -0.40000
N341        N  0.24693887  0.48463160  0.62403198    -0.39800
N342        N  0.25588134  0.39611696  0.59966306    -0.37400
N343        N  0.24270390  0.42253305  0.36230969    -0.38500
N344        N  0.24379525  0.51127741  0.38703110    -0.40100
C345        C  0.54945722  0.82851056  0.30196980    -0.05100
C346        C  0.53895165  0.85598972  0.28025787     0.09100
C347        C  0.56258163  0.88232053  0.29464242    -0.02400
C348        C  0.59659951  0.88119599  0.33055036    -0.00700
C349        C  0.60568619  0.85390613  0.35370053    -0.04300
C350        C  0.58289644  0.82740299  0.33817939     0.02700
C351        C  0.50471639  0.85667025  0.24055996     0.09500
C352        C  0.55154417  0.91061131  0.27250355     0.35400
C353        C  0.59632726  0.79845899  0.35688087     0.38900
C354        C  0.45580624  0.85309655  0.24847410    -0.04700
C355        C  0.42407784  0.85063854  0.21080841     0.02500
C356        C  0.44103812  0.85215099  0.16463365    -0.04300
C357        C  0.48997185  0.85723354  0.15705404    -0.00500
C358        C  0.52157139  0.85918039  0.19480350    -0.03100
C359        C  0.43830761  0.85123602  0.29561308     0.36200
C360        C  0.50829130  0.86040770  0.11039694     0.39800
C361        C  0.37444601  0.84506868  0.22021395     0.38900
C362        C  0.57183846  0.86307448  0.18651061     0.35800
C363        C  0.52617430  0.80119664  0.28657587     0.36500
C364        C  0.62266181  0.90805695  0.34275139     0.39800
N365        N  0.33502747  0.84069045  0.22858074    -0.38300
N366        N  0.42438624  0.84962695  0.33319783    -0.39900
N367        N  0.52311256  0.86273942  0.07324048    -0.37600
N368        N  0.61188947  0.86633776  0.17995843    -0.40000
N369        N  0.54257823  0.93309518  0.25464390    -0.39800
N370        N  0.64372352  0.92961241  0.35137915    -0.37400
N371        N  0.60704762  0.77511790  0.37077421    -0.38500
N372        N  0.50735852  0.77947499  0.27451180    -0.40100
C373        C  0.28588331  0.80143244  0.83577115    -0.05100
C374        C  0.30926725  0.77753980  0.81305503     0.09100
C375        C  0.35163917  0.76589965  0.83164665    -0.02400
C376        C  0.36849423  0.77645646  0.87462741    -0.00700
C377        C  0.34324346  0.79884702  0.89908585    -0.04300
C378        C  0.30314320  0.81229037  0.87859055     0.02700
C379        C  0.28982208  0.76471910  0.76910931     0.09500
C380        C  0.37734748  0.74257971  0.80690993     0.35400
C381        C  0.27782910  0.83588988  0.90297749     0.38900
C382        C  0.31003633  0.77280870  0.72651722    -0.04700
C383        C  0.29570898  0.75839115  0.68529212     0.02500
C384        C  0.25881351  0.73664090  0.68603087    -0.04300
C385        C  0.23607671  0.73048822  0.72872499    -0.00500
C386        C  0.25292646  0.74348885  0.77018375    -0.03100
C387        C  0.34684570  0.79547926  0.72549236     0.36200
C388        C  0.19479023  0.71114518  0.73042195     0.39800
C389        C  0.32097165  0.76535298  0.64294113     0.38900
C390        C  0.23359239  0.73380601  0.81409527     0.35800
C391        C  0.24333615  0.81412054  0.81566914     0.36500
C392        C  0.41170703  0.76412630  0.89390812     0.39800
N393        N  0.34147129  0.77090395  0.60938448    -0.38300
N394        N  0.37616039  0.81355392  0.72483494    -0.39900
N395        N  0.16175200  0.69586542  0.73162189    -0.37600
N396        N  0.21794281  0.72521093  0.84854894    -0.40000
N397        N  0.39791836  0.72415154  0.78694907    -0.39800
N398        N  0.44645616  0.75432920  0.90885578    -0.37400
N399        N  0.25765388  0.85470107  0.92244221    -0.38500
N400        N  0.20928322  0.82412285  0.79952213    -0.40100
C401        C  0.23945940  0.75958210  0.25340785    -0.05100
C402        C  0.25878891  0.73078613  0.26078179     0.09100
C403        C  0.28777976  0.71749148  0.22669936    -0.02400
C404        C  0.29882550  0.73337283  0.18600106    -0.00700
C405        C  0.28160300  0.76291364  0.17972060    -0.04300
C406        C  0.25094345  0.77566438  0.21312894     0.02700
C407        C  0.25324553  0.71644577  0.30707097     0.09500
C408        C  0.30738162  0.68784527  0.23432334     0.35400
C409        C  0.23037425  0.80509822  0.20574393     0.38900
C410        C  0.21709975  0.69540525  0.31542213    -0.04700
C411        C  0.20762755  0.68582609  0.36114722     0.02500
C412        C  0.23455974  0.69732632  0.39866013    -0.04300
C413        C  0.27296220  0.71693677  0.38921471    -0.00500
C414        C  0.28214838  0.72631763  0.34375128    -0.03100
C415        C  0.18837886  0.68476247  0.27708060     0.36200
C416        C  0.30227044  0.72900375  0.42619114     0.39800
C417        C  0.16757822  0.66640272  0.36970753     0.38900
C418        C  0.32005148  0.74751971  0.33486124     0.35800
C419        C  0.20849617  0.77288676  0.28798869     0.36500
C420        C  0.32931097  0.71958653  0.15151473     0.39800
N421        N  0.13532179  0.65107229  0.37642852    -0.38300
N422        N  0.16567969  0.67631479  0.24628851    -0.39900
N423        N  0.32591271  0.73946677  0.45472753    -0.37600
N424        N  0.35002137  0.76455718  0.32782058    -0.40000
N425        N  0.32299002  0.66417299  0.24046509    -0.39800
N426        N  0.35347272  0.70828429  0.12416879    -0.37400
N427        N  0.21384756  0.82856355  0.19999438    -0.38500
N428        N  0.18384557  0.78341335  0.31564718    -0.40100
C429        C  0.36733782  0.96917959  0.01633916    -0.05100
C430        C  0.32302058  0.98158469  0.00483332     0.09100
C431        C  0.28309774  0.96275890  0.00199233    -0.02400
C432        C  0.28723190  0.93169311  0.01122825    -0.00700
C433        C  0.33156482  0.91903066  0.02412551    -0.04300
C434        C  0.37169396  0.93832888  0.02656334     0.02700
C435        C  0.31878888  0.01462697  0.99541842     0.09500
C436        C  0.23773079  0.97550060  0.98911111     0.35400
C437        C  0.41756541  0.92714202  0.04116437     0.38900
C438        C  0.32781447  0.02577401  0.95075471    -0.04700
C439        C  0.32670728  0.05697430  0.94231213     0.02500
C440        C  0.31814868  0.07760873  0.97914653    -0.04300
C441        C  0.30827993  0.06616831  0.02378122    -0.00500
C442        C  0.30791750  0.03486942  0.03163808    -0.03100
C443        C  0.33937449  0.00496187  0.91357786     0.36200
C444        C  0.29789618  0.08646430  0.06187294     0.39800
C445        C  0.33603760  0.06756691  0.89581928     0.38900
C446        C  0.29659671  0.02336220  0.07713680     0.35800
C447        C  0.40879505  0.98839527  0.01751112     0.36500
C448        C  0.24557876  0.91291979  0.00643919     0.39800
N449        N  0.34322421  0.07582103  0.85851604    -0.38300
N450        N  0.34881774  0.98829985  0.88414730    -0.39900
N451        N  0.28988010  0.10242380  0.09257213    -0.37600
N452        N  0.28724877  0.01412365  0.11338489    -0.40000
N453        N  0.20158298  0.98578092  0.97876260    -0.39800
N454        N  0.21225237  0.89807745  0.00266256    -0.37400
N455        N  0.45438747  0.91852602  0.05281340    -0.38500
N456        N  0.44178646  0.00370982  0.01809370    -0.40100
C457        C  0.27327870  0.19561642  0.18349132    -0.05100
C458        C  0.30408469  0.21555234  0.20684191     0.09100
C459        C  0.34720737  0.22375152  0.18563996    -0.02400
C460        C  0.35846118  0.21305595  0.14083678    -0.00700
C461        C  0.32559583  0.19539321  0.11583473    -0.04300
C462        C  0.28307029  0.18649661  0.13760676     0.02700
C463        C  0.28930259  0.22993297  0.25181484     0.09500
C464        C  0.37873932  0.24470227  0.20873770     0.35400
C465        C  0.24809291  0.16927547  0.11204434     0.38900
C466        C  0.31388125  0.22380847  0.29332709    -0.04700
C467        C  0.30242991  0.23950103  0.33454654     0.02500
C468        C  0.26455818  0.26059480  0.33510714    -0.04300
C469        C  0.23672367  0.26384643  0.29465434    -0.00500
C470        C  0.25062442  0.25007659  0.25276313    -0.03100
C471        C  0.35140306  0.20151788  0.29344373     0.36200
C472        C  0.19142207  0.27909993  0.29679391     0.39800
C473        C  0.33021641  0.23379607  0.37591906     0.38900
C474        C  0.22552733  0.25726142  0.21032007     0.35800
C475        C  0.23047081  0.18539888  0.20615846     0.36500
C476        C  0.40229969  0.22239422  0.11923936     0.39800
N477        N  0.35240828  0.22901871  0.40881570    -0.38300
N478        N  0.38141579  0.18380461  0.29348735    -0.39900
N479        N  0.15443513  0.29023186  0.29848396    -0.37600
N480        N  0.20553898  0.26308215  0.17651296    -0.40000
N481        N  0.40388061  0.26143220  0.22717348    -0.39800
N482        N  0.43744728  0.23002686  0.10262705    -0.37400
N483        N  0.21965338  0.15598859  0.09160702    -0.38500
N484        N  0.19629753  0.17736997  0.22424078    -0.40100
C485        C  0.22923550  0.31759787  0.70224763    -0.05100
C486        C  0.25811557  0.29282375  0.71350103     0.09100
C487        C  0.27811070  0.27533537  0.67774891    -0.02400
C488        C  0.26834394  0.28193610  0.63108685    -0.00700
C489        C  0.23671071  0.30559632  0.61934079    -0.04300
C490        C  0.21801115  0.32380299  0.65542162     0.02700
C491        C  0.26395944  0.28263819  0.76257872     0.09500
C492        C  0.30728683  0.24951523  0.68910005     0.35400
C493        C  0.18510141  0.34781751  0.64499682     0.38900
C494        C  0.22822044  0.26510908  0.78286255    -0.04700
C495        C  0.23743485  0.24914218  0.82390374     0.02500
C496        C  0.28314216  0.24982042  0.84445108    -0.04300
C497        C  0.31737654  0.26984444  0.82647949    -0.00500
C498        C  0.30756371  0.28627389  0.78579499    -0.03100
C499        C  0.18249644  0.26245852  0.76021124     0.36200
C500        C  0.36389624  0.27205139  0.84746503     0.39800
C501        C  0.19934585  0.23212079  0.84481318     0.38900
C502        C  0.34302781  0.30608250  0.76656438     0.35800
C503        C  0.20998683  0.33613605  0.73912198     0.36500
C504        C  0.29119401  0.26388092  0.59548228     0.39800
N505        N  0.16872760  0.21870971  0.86123196    -0.38300
N506        N  0.14604348  0.26045470  0.74207583    -0.39900
N507        N  0.40130122  0.27367188  0.86373598    -0.37600
N508        N  0.37122951  0.32196958  0.75131257    -0.40000
N509        N  0.33034884  0.22883835  0.69799942    -0.39800
N510        N  0.30943744  0.24916164  0.56757843    -0.37400
N511        N  0.15873475  0.36699519  0.63682384    -0.38500
N512        N  0.19468059  0.35091658  0.76859329    -0.40100
C513        C  0.46450565  0.16061234  0.77130338    -0.05100
C514        C  0.49736970  0.13698314  0.77559406     0.09100
C515        C  0.49257781  0.11636010  0.81209109    -0.02400
C516        C  0.45672692  0.12032118  0.84575404    -0.00700
C517        C  0.42464798  0.14485421  0.84282710    -0.04300
C518        C  0.42833716  0.16454426  0.80447403     0.02700
C519        C  0.53884411  0.13532821  0.74324936     0.09500
C520        C  0.52480909  0.09108254  0.81490768     0.35400
C521        C  0.39650702  0.18982640  0.79966126     0.38900
C522        C  0.58281437  0.14743410  0.75702217    -0.04700
C523        C  0.62027582  0.14980888  0.72490855     0.02500
C524        C  0.61359137  0.14080291  0.67822952    -0.04300
C525        C  0.57034238  0.12698631  0.66532181    -0.00500
C526        C  0.53324445  0.12420860  0.69775719    -0.03100
C527        C  0.58858700  0.15896725  0.80380214     0.36200
C528        C  0.56366341  0.11589986  0.61840982     0.39800
C529        C  0.66462456  0.16303429  0.73985173     0.38900
C530        C  0.48862257  0.11079068  0.68402539     0.35800
C531        C  0.46874094  0.18147443  0.73305145     0.36500
C532        C  0.45313978  0.09885091  0.88318634     0.39800
N533        N  0.69970229  0.17346043  0.75291612    -0.38300
N534        N  0.59298254  0.16826190  0.84107315    -0.39900
N535        N  0.55817810  0.10726232  0.58090017    -0.37600
N536        N  0.45294736  0.10014109  0.67313699    -0.40000
N537        N  0.55045028  0.07083777  0.81697493    -0.39800
N538        N  0.45061999  0.08172556  0.91302119    -0.37400
N539        N  0.37117172  0.21001739  0.79513328    -0.38500
N540        N  0.47209286  0.19798833  0.70248559    -0.40100
C541        C  0.02619739  0.25128704  0.00144496    -0.05100
C542        C  0.03099375  0.22201604  0.01914965     0.09100
C543        C  0.99456288  0.20960005  0.04611059    -0.02400
C544        C  0.95401660  0.22689034  0.05676347    -0.00700
C545        C  0.95155408  0.25729679  0.04300892    -0.04300
C546        C  0.98741784  0.26918095  0.01442864     0.02700
C547        C  0.07746214  0.20653877  0.01362801     0.09500
C548        C  0.99938716  0.17930612  0.06352734     0.35400
C549        C  0.98410474  0.29969907  0.99729584     0.38900
C550        C  0.11583233  0.21715852  0.03999927    -0.04700
C551        C  0.16236007  0.21094656  0.02590511     0.02500
C552        C  0.17099184  0.19177980  0.98725255    -0.04300
C553        C  0.13212898  0.17850379  0.96396247    -0.00500
C554        C  0.08537659  0.18629814  0.97674730    -0.03100
C555        C  0.10723071  0.23662872  0.07974790     0.36200
C556        C  0.13995941  0.15950348  0.92375677     0.39800
C557        C  0.20041713  0.22665794  0.04950728     0.38900
C558        C  0.04546493  0.17511017  0.95029023     0.35800
C559        C  0.06171391  0.26300634  0.97012399     0.36500
C560        C  0.91533020  0.21345412  0.08207418     0.39800
N561        N  0.22899304  0.24046379  0.06889845    -0.38300
N562        N  0.10043558  0.25216506  0.11129608    -0.39900
N563        N  0.14618627  0.14459288  0.89139472    -0.37600
N564        N  0.01345068  0.16623498  0.92926660    -0.40000
N565        N  0.00339153  0.15514141  0.07736195    -0.39800
N566        N  0.88422457  0.20241117  0.10166186    -0.37400
N567        N  0.98164211  0.32401997  0.98377673    -0.38500
N568        N  0.08998434  0.27210749  0.94486651    -0.40100
C569        C  0.61304086  0.30317322  0.99882168    -0.05100
C570        C  0.57868427  0.29683125  0.03262433     0.09100
C571        C  0.58650786  0.30543682  0.07913331    -0.02400
C572        C  0.63043577  0.31785429  0.09228641    -0.00700
C573        C  0.66743175  0.31934212  0.05975512    -0.04300
C574        C  0.65755042  0.31426248  0.01242274     0.02700
C575        C  0.53691892  0.27816062  0.01980091     0.09500
C576        C  0.55077988  0.29943230  0.11381431     0.35400
C577        C  0.69292586  0.32032985  0.97749783     0.38900
C578        C  0.54098103  0.24666075  0.02072810    -0.04700
C579        C  0.50220502  0.22854867  0.00818591     0.02500
C580        C  0.45908446  0.24187046  0.99357196    -0.04300
C581        C  0.45554934  0.27364768  0.99212831    -0.00500
C582        C  0.49430116  0.29162636  0.00555971    -0.03100
C583        C  0.58515786  0.23292921  0.03532987     0.36200
C584        C  0.41233619  0.28808551  0.97660628     0.39800
C585        C  0.50621514  0.19625324  0.01335653     0.38900
C586        C  0.49038256  0.32407850  0.00509805     0.35800
C587        C  0.60347050  0.29654573  0.95044317     0.36500
C588        C  0.63821125  0.32828436  0.13930975     0.39800
N589        N  0.50939812  0.17056013  0.01781172    -0.38300
N590        N  0.62047673  0.22208258  0.04696196    -0.39900
N591        N  0.37787011  0.29975654  0.96441193    -0.37600
N592        N  0.48729098  0.34995084  0.00494621    -0.40000
N593        N  0.52239190  0.29428882  0.14147217    -0.39800
N594        N  0.64440488  0.33685912  0.17675644    -0.37400
N595        N  0.71968768  0.32544432  0.94834528    -0.38500
N596        N  0.59575204  0.29125931  0.91186281    -0.40100
C597        C  0.96645248  0.34037272  0.26767172    -0.05100
C598        C  0.00127528  0.36266069  0.26204037     0.09100
C599        C  0.99905020  0.38159434  0.22312471    -0.02400
C600        C  0.96508288  0.37653202  0.18795392    -0.00700
C601        C  0.92903118  0.35463662  0.19388344    -0.04300
C602        C  0.92917399  0.33755030  0.23540561     0.02700
C603        C  0.04097923  0.36543905  0.29650913     0.09500
C604        C  0.03159439  0.40663006  0.21959200     0.35400
C605        C  0.89099138  0.31710248  0.24619607     0.38900
C606        C  0.08806767  0.35927051  0.28300096    -0.04700
C607        C  0.12487178  0.35989265  0.31601663     0.02500
C608        C  0.11410191  0.36266389  0.36380494    -0.04300
C609        C  0.06759273  0.37104496  0.37684560    -0.00500
C610        C  0.03155166  0.37325451  0.34310398    -0.03100
C611        C  0.09854873  0.35080900  0.23546867     0.36200
C612        C  0.05698576  0.37839418  0.42475086     0.39800
C613        C  0.17349477  0.35745957  0.30026079     0.38900
C614        C  0.98448853  0.38309597  0.35640128     0.35800
C615        C  0.96914649  0.31992352  0.30660246     0.36500
C616        C  0.96792011  0.39416598  0.14600134     0.39800
N617        N  0.21221660  0.35594375  0.28736978    -0.38300
N618        N  0.10696331  0.34399569  0.19762237    -0.39900
N619        N  0.04855051  0.38438169  0.46291717    -0.37600
N620        N  0.94689409  0.39088513  0.36695824    -0.40000
N621        N  0.05746563  0.42663001  0.21704434    -0.39800
N622        N  0.97087848  0.40813830  0.11245401    -0.37400
N623        N  0.86015786  0.30141501  0.25611452    -0.38500
N624        N  0.97094064  0.30361515  0.33760570    -0.40100
C625        C  0.73935552  0.18636612  0.34215721    -0.05100
C626        C  0.76285150  0.21352791  0.33282102     0.09100
C627        C  0.77596013  0.23259571  0.36960577    -0.02400
C628        C  0.76263867  0.22576852  0.41523558    -0.00700
C629        C  0.73537957  0.19963315  0.42470015    -0.04300
C630        C  0.72576135  0.17929045  0.38792432     0.02700
C631        C  0.76934172  0.22411094  0.28422804     0.09500
C632        C  0.80185219  0.26003464  0.36029315     0.35400
C633        C  0.70038165  0.15163396  0.39634761     0.38900
C634        C  0.73092425  0.23750174  0.26095265    -0.04700
C635        C  0.73806333  0.25173338  0.21817210     0.02500
C636        C  0.78423569  0.25504998  0.20027265    -0.04300
C637        C  0.82213330  0.23950359  0.22171759    -0.00500
C638        C  0.81441772  0.22371100  0.26333002    -0.03100
C639        C  0.68426597  0.23760720  0.28194267     0.36200
C640        C  0.86956000  0.24107187  0.20276885     0.39800
C641        C  0.69742706  0.26072666  0.19097297     0.38900
C642        C  0.85296673  0.20777281  0.28556814     0.35800
C643        C  0.72808367  0.16613854  0.30424362     0.36500
C644        C  0.77714676  0.24627251  0.45191966     0.39800
N645        N  0.66439403  0.26648980  0.16904049    -0.38300
N646        N  0.64721408  0.23778434  0.29897181    -0.39900
N647        N  0.90763605  0.24247974  0.18824428    -0.37600
N648        N  0.88351223  0.19485550  0.30335265    -0.40000
N649        N  0.82256749  0.28190670  0.35333990    -0.39800
N650        N  0.78863680  0.26300937  0.48058702    -0.37400
N651        N  0.68033945  0.12945998  0.40297975    -0.38500
N652        N  0.71910882  0.15004687  0.27390452    -0.40100
C653        C  0.74433508  0.26971108  0.77171692    -0.05100
C654        C  0.79219108  0.27127365  0.78570787     0.09100
C655        C  0.82776256  0.25850270  0.75761964    -0.02400
C656        C  0.81530397  0.24251815  0.71724917    -0.00700
C657        C  0.76729963  0.23982423  0.70431535    -0.04300
C658        C  0.73187883  0.25409964  0.73086873     0.02700
C659        C  0.80417819  0.28094085  0.83383305     0.09500
C660        C  0.87697894  0.26064233  0.77155936     0.35400
C661        C  0.68274324  0.25219236  0.71656078     0.38900
C662        C  0.80215643  0.25947640  0.86934070    -0.04700
C663        C  0.81235339  0.26780735  0.91521577     0.02500
C664        C  0.82373292  0.29793768  0.92625398    -0.06700
C665        C  0.82843001  0.31909299  0.89033199    -0.00500
C666        C  0.81835800  0.31058746  0.84406511    -0.03100
C667        C  0.78919731  0.22870186  0.85850265     0.36200
C668        C  0.84257774  0.34957612  0.90100346     0.39800
C669        C  0.81225420  0.24496604  0.95091740     0.38900
C670        C  0.82192491  0.33226470  0.80704554     0.35800
C671        C  0.70787511  0.28317898  0.80046527     0.36500
C672        C  0.85181789  0.22736249  0.69059483     0.39800
N673        N  0.81232110  0.22661362  0.97909513    -0.38300
N674        N  0.77878073  0.20424116  0.84960929    -0.39900
N675        N  0.85424782  0.37387279  0.90944591    -0.37600
N676        N  0.82476339  0.34950879  0.77738956    -0.40000
N677        N  0.91629511  0.26239819  0.78263311    -0.39800
N678        N  0.88125015  0.21513431  0.67002951    -0.37400
N679        N  0.64354872  0.25065309  0.70497520    -0.38500
N680        N  0.67893166  0.29392015  0.82352332    -0.40100
C681        C  0.02748840  0.66527588  0.69622333    -0.05100
C682        C  0.03385239  0.64206485  0.72863097     0.09100
C683        C  0.07001261  0.62075237  0.72126927    -0.02400
C684        C  0.10087495  0.62327498  0.68284978    -0.00700
C685        C  0.09641993  0.64756568  0.65134708    -0.04300
C686        C  0.05797495  0.66783234  0.65756865     0.02700
C687        C  0.00193963  0.64007818  0.77031034     0.09500
C688        C  0.07543924  0.59621249  0.75359236     0.35400
C689        C  0.04924407  0.69153481  0.62455679     0.38900
C690        C  0.95796316  0.62530230  0.76711968    -0.04700
C691        C  0.92555721  0.62650328  0.80443518     0.02500
C692        C  0.93725652  0.64192399  0.84603498    -0.04300
C693        C  0.98301432  0.65457497  0.85035396    -0.00500
C694        C  0.01484716  0.65398794  0.81249838    -0.03100
C695        C  0.94610404  0.60895311  0.72512312     0.36200
C696        C  0.99725410  0.66936343  0.89289385     0.39800
C697        C  0.88016840  0.61162533  0.79993473     0.38900
C698        C  0.06065819  0.66839272  0.81655543     0.35800
C699        C  0.98971628  0.68696332  0.70320300     0.36500
C700        C  0.13604769  0.60001278  0.67514519     0.39800
N701        N  0.84403270  0.59965634  0.79620399    -0.38300
N702        N  0.93703042  0.59573599  0.69166665    -0.39900
N703        N  0.01019025  0.68112863  0.92637826    -0.37600
N704        N  0.09717616  0.67990931  0.82000465    -0.40000
N705        N  0.07959753  0.57667126  0.77951732    -0.39800
N706        N  0.16384075  0.58131243  0.66900939    -0.37400
N707        N  0.04140169  0.71018404  0.59791544    -0.38500
N708        N  0.95966569  0.70426804  0.70885563    -0.40100
C709        C  0.99853083  0.78942983  0.98527406    -0.05100
C710        C  0.03780282  0.77565908  0.00662830     0.09100
C711        C  0.03442037  0.74591197  0.02244769    -0.02400
C712        C  0.99301490  0.72929301  0.01441179    -0.00700
C713        C  0.95431127  0.74241119  0.99055872    -0.04300
C714        C  0.95681797  0.77280231  0.97704747     0.02700
C715        C  0.08489249  0.79069036  0.00800764     0.09500
C716        C  0.07430879  0.73217446  0.04612791     0.35400
C717        C  0.91778595  0.78647360  0.95221602     0.38900
C718        C  0.09689362  0.81047920  0.04424201    -0.04700
C719        C  0.14427577  0.81980270  0.05019008     0.02500
C720        C  0.18073628  0.80730964  0.02204234    -0.04300
C721        C  0.16719199  0.78960478  0.98286416    -0.00500
C722        C  0.11948551  0.78184365  0.97572203    -0.03100
C723        C  0.06082484  0.81990276  0.07696806     0.36200
C724        C  0.20184338  0.77779612  0.95046541     0.39800
C725        C  0.15479185  0.84210411  0.08543062     0.38900
C726        C  0.10613334  0.76301323  0.93655550     0.35800
C727        C  0.00162541  0.82043554  0.97083878     0.36500
C728        C  0.99035102  0.69870363  0.03132212     0.39800
N729        N  0.16293971  0.86021346  0.11322198    -0.38300
N730        N  0.03212582  0.82724805  0.10323503    -0.39900
N731        N  0.22950280  0.76794834  0.92511937    -0.37600
N732        N  0.09544843  0.74793922  0.90547133    -0.40000
N733        N  0.10620266  0.72130996  0.06488511    -0.39800
N734        N  0.98827059  0.67434237  0.04481663    -0.37400
N735        N  0.88680159  0.79741126  0.93217261    -0.38500
N736        N  0.00404154  0.84527282  0.95966063    -0.40100
C737        C  0.59541275  0.66976033  0.99059026    -0.05100
C738        C  0.57416912  0.69758380  0.98054498     0.09100
C739        C  0.59599036  0.71720089  0.94905948    -0.02400
C740        C  0.64146610  0.71067902  0.93217364    -0.00700
C741        C  0.66628802  0.68520081  0.94847071    -0.04300
C742        C  0.64153496  0.66343052  0.97438539     0.02700
C743        C  0.53161481  0.70821727  0.00628313     0.09500
C744        C  0.57264019  0.74496770  0.93606742     0.35400
C745        C  0.66373229  0.63511059  0.98587005     0.38900
C746        C  0.53770338  0.72901767  0.04288988    -0.04700
C747        C  0.49876736  0.74572889  0.05916170     0.02500
C748        C  0.45377599  0.74136064  0.03920493    -0.04300
C749        C  0.44664430  0.71778149  0.00709313    -0.00500
C750        C  0.48577910  0.70150694  0.98999732    -0.03100
C751        C  0.58470982  0.73472196  0.06128209     0.36200
C752        C  0.39965230  0.71204015  0.98876124     0.39800
C753        C  0.50518635  0.76806331  0.09532395     0.38900
C754        C  0.47944634  0.67964356  0.95316784     0.35800
C755        C  0.57046508  0.64827380  0.01895283     0.36500
C756        C  0.66237269  0.73013336  0.89765832     0.39800
N757        N  0.51052610  0.78561565  0.12454093    -0.38300
N758        N  0.62233700  0.73923109  0.07560230    -0.39900
N759        N  0.36213910  0.70756688  0.97413716    -0.37600
N760        N  0.47434297  0.66226879  0.92365351    -0.40000
N761        N  0.55427025  0.76722900  0.92600672    -0.39800
N762        N  0.67836704  0.74558409  0.86971350    -0.37400
N763        N  0.68117566  0.61235386  0.99477465    -0.38500
N764        N  0.55030898  0.63103379  0.04125574    -0.40100
C765        C  0.83940835  0.52477437  0.97338257    -0.05100
C766        C  0.81390927  0.51680952  0.01356827     0.09100
C767        C  0.79095051  0.53959882  0.03939514    -0.02400
C768        C  0.79477958  0.57001705  0.02610544    -0.00700
C769        C  0.81931815  0.57793846  0.98523983    -0.04300
C770        C  0.84166148  0.55502917  0.95905443     0.02700
C771        C  0.81289100  0.48456555  0.02938083     0.09500
C772        C  0.76315111  0.53171341  0.07973217     0.35400
C773        C  0.87000257  0.56269269  0.91902248     0.38900
C774        C  0.83701620  0.47583962  0.07013061    -0.04700
C775        C  0.83697748  0.44551508  0.08432986     0.02500
C776        C  0.81661708  0.42306327  0.05571970    -0.04300
C777        C  0.79245953  0.43180807  0.01501155    -0.00500
C778        C  0.78920544  0.46244400  0.00284632    -0.03100
C779        C  0.86355576  0.49791213  0.09656290     0.36200
C780        C  0.76998140  0.40932866  0.98599434     0.39800
C781        C  0.85846247  0.43757520  0.12825037     0.38900
C782        C  0.76141974  0.47127020  0.96288249     0.35800
C783        C  0.86449943  0.50182223  0.94734234     0.36500
C784        C  0.77395927  0.59309814  0.05513709     0.39800
N785        N  0.87479982  0.43161139  0.16382270    -0.38300
N786        N  0.88494426  0.51551569  0.11743557    -0.39900
N787        N  0.75212050  0.39145263  0.96265218    -0.37600
N788        N  0.73921696  0.47837710  0.93104400    -0.40000
N789        N  0.74100806  0.52543808  0.11191387    -0.39800
N790        N  0.75767447  0.61126102  0.07908479    -0.37400
N791        N  0.89314751  0.56853839  0.88735064    -0.38500
N792        N  0.88429567  0.48341332  0.92655236    -0.40100
C793        C  0.78308642  0.80743254  0.67548853    -0.05100
C794        C  0.75122879  0.79183955  0.70416270     0.09100
C795        C  0.70399741  0.78759792  0.68947604    -0.02400
C796        C  0.68975731  0.79673065  0.64483987    -0.00700
C797        C  0.72252987  0.81056701  0.61496968    -0.04300
C798        C  0.76877141  0.81675067  0.63093264     0.02700
C799        C  0.76903683  0.77549659  0.74593390     0.09500
C800        C  0.67090467  0.77220064  0.71940762     0.35400
C801        C  0.80268866  0.83067997  0.60022519     0.38900
C802        C  0.76884807  0.78902494  0.79018484    -0.04700
C803        C  0.78147459  0.77211211  0.82970460     0.02500
C804        C  0.79464358  0.74148417  0.82500569    -0.04300
C805        C  0.79693721  0.72859731  0.78011261    -0.00500
C806        C  0.78407590  0.74548950  0.74096164    -0.03100
C807        C  0.75454665  0.82013624  0.79499009     0.36200
C808        C  0.81262967  0.69785474  0.77378892     0.39800
C809        C  0.77782756  0.78586076  0.87523440     0.38900
C810        C  0.78536131  0.73177701  0.69523594     0.35800
C811        C  0.83138589  0.81221463  0.69081055     0.36500
C812        C  0.64215575  0.79039032  0.62863192     0.39800
N813        N  0.77452441  0.79690925  0.91146088    -0.38300
N814        N  0.74323874  0.84500174  0.79874882    -0.39900
N815        N  0.82493582  0.67332003  0.76831138    -0.37600
N816        N  0.78624717  0.72095716  0.65872308    -0.40000
N817        N  0.64469020  0.75986872  0.74340609    -0.39800
N818        N  0.60422893  0.78522600  0.61564727    -0.37400
N819        N  0.82995891  0.84159265  0.57573497    -0.38500
N820        N  0.86997044  0.81599421  0.70302481    -0.40100
C821        C  0.75317840  0.70525367  0.16991383    -0.05100
C822        C  0.78621640  0.72135886  0.19682512     0.09100
C823        C  0.83217761  0.72605914  0.17952271    -0.02400
C824        C  0.84443180  0.71612325  0.13449082    -0.00700
C825        C  0.81072605  0.70106811  0.10632970    -0.04300
C826        C  0.76513464  0.69540812  0.12480905     0.02700
C827        C  0.77103217  0.73633681  0.24108716     0.09500
C828        C  0.86618726  0.74256641  0.20746611     0.35400
C829        C  0.72943757  0.68045506  0.09697234     0.38900
C830        C  0.77794752  0.72231370  0.28408361    -0.04700
C831        C  0.76574857  0.73730529  0.32576504     0.02500
C832        C  0.74712735  0.76709167  0.32492706    -0.04300
C833        C  0.73669403  0.77988332  0.28083400    -0.00500
C834        C  0.74970014  0.76487374  0.23955131    -0.03100
C835        C  0.79831457  0.69241673  0.28530712     0.36200
C836        C  0.71149819  0.80819555  0.27680036     0.39800
C837        C  0.77155705  0.72128665  0.36896479     0.38900
C838        C  0.74208598  0.77912430  0.19503701     0.35800
C839        C  0.70622616  0.69980926  0.18821281     0.36500
C840        C  0.89020484  0.72421631  0.11607319     0.39800
N841        N  0.77586265  0.70808525  0.40313800    -0.38300
N842        N  0.81462029  0.66860080  0.28625461    -0.39900
N843        N  0.69114705  0.83061031  0.27308510    -0.37600
N844        N  0.73632642  0.79047584  0.15950205    -0.40000
N845        N  0.89307352  0.75576131  0.22987770    -0.39800
N846        N  0.92688803  0.73151770  0.10247907    -0.37400
N847        N  0.70027781  0.66887566  0.07523754    -0.38500
N848        N  0.66876586  0.69548543  0.20292510    -0.40100
loop_ 
_geom_bond_atom_site_label_1 
_geom_bond_atom_site_label_2 
_geom_bond_distance 
_geom_bond_site_symmetry_2 
_ccdc_geom_bond_type 
O1          Cr19   2.041       .  S
O1            C9   1.275       .  A
O2          Cr19   1.957       .  S
O2            C3   1.252       .  A
C3            O4   1.264       .  A
C3          C713   1.485       .  S
O4          Cr20   2.017       .  S
O5          Cr20   1.982       .  S
O5            C6   1.262       .  A
C6            O7   1.269       .  A
C6          C804   1.495       .  S
O7          Cr21   2.018       .  S
O8          Cr21   1.969       .  S
O8            C9   1.259       .  A
C9          C692   1.501       .  S
O10         Cr19   1.979   1_554  S
O10          C18   1.258   1_554  A
O11         Cr19   2.042   1_554  S
O11          C12   1.274       .  A
C12          O13   1.260       .  A
C12         C825   1.498       .  S
O13         Cr20   1.968   1_554  S
O14         Cr20   2.002       .  S
O14          C15   1.267       .  A
C15          O16   1.262       .  A
C15         C741   1.488       .  S
O16         Cr21   1.982       .  S
O17         Cr21   2.027       .  S
O17          C18   1.269       .  A
C18         C769   1.498       .  S
Cr19         O22   1.769       .  S
Cr20         O22   1.774       .  S
Cr21         O22   1.772       .  S
O23         Cr41   2.020       .  S
O23          C31   1.271       .  A
O24         Cr41   1.974       .  S
O24          C25   1.260       .  A
C25          O26   1.261       .  A
C25         C545   1.481       .  S
O26         Cr42   2.000       .  S
O27         Cr42   1.973       .  S
O27          C28   1.256       .  A
C28          O29   1.270       .  A
C28         C636   1.490       .  S
O29         Cr43   2.028       .  S
O30         Cr43   1.970       .  S
O30          C31   1.263       .  A
C31         C601   1.508       .  S
O32         Cr41   1.987       .  S
O32          C40   1.261       .  A
O33         Cr41   2.027   1_556  S
O33          C34   1.268       .  A
C34          O35   1.256   1_556  A
C34         C664   1.482       .  S
O35         Cr42   1.949       .  S
O36         Cr42   2.003       .  S
O36          C37   1.267       .  A
C37          O38   1.261       .  A
C37         C573   1.477       .  S
O38         Cr43   1.986       .  S
O39         Cr43   2.019       .  S
O39          C40   1.266       .  A
C40         C776   1.497       .  S
Cr41         O44   1.770       .  S
Cr42         O44   1.769       .  S
Cr43         O44   1.773       .  S
O45         Cr63   2.012       .  S
O45          C53   1.270       .  A
O46         Cr63   1.979       .  S
O46          C47   1.258       .  A
C47          O48   1.259       .  A
C47         C580   1.492       .  S
O48         Cr64   1.996       .  S
O49         Cr64   1.983       .  S
O49          C50   1.263       .  A
C50          O51   1.270       .  A
C50         C496   1.498       .  S
O51         Cr65   2.014       .  S
O52         Cr65   1.983       .  S
O52          C53   1.265       .  A
C53         C517   1.504       .  S
O54         Cr63   1.988   1_554  S
O54          C62   1.262   1_554  A
O55         Cr63   2.032   1_554  S
O55          C56   1.271       .  A
C56          O57   1.255       .  A
C56         C461   1.486       .  S
O57         Cr64   1.959   1_554  S
O58         Cr64   1.985       .  S
O58          C59   1.259       .  A
C59          O60   1.266       .  A
C59         C552   1.488       .  S
O60         Cr65   2.004       .  S
O61         Cr65   2.007       .  S
O61          C62   1.263       .  A
C62         C440   1.502       .  S
Cr63         O66   1.774       .  S
Cr64         O66   1.771       .  S
Cr65         O66   1.770       .  S
O67         Cr85   1.969       .  S
O67          C75   1.262       .  A
O68         Cr85   2.006       .  S
O68          C69   1.266       .  A
C69          O70   1.258       .  A
C69         C748   1.473       .  S
O70         Cr86   1.974       .  S
O71         Cr86   1.997       .  S
O71          C72   1.260       .  A
C72          O73   1.258       .  A
C72         C405   1.483       .  S
O73         Cr87   1.978       .  S
O74         Cr87   2.017       .  S
O74          C75   1.270       .  A
C75         C356   1.494       .  S
O76         Cr85   2.006       .  S
O76          C84   1.263       .  A
O77         Cr85   1.994   1_556  S
O77          C78   1.263       .  A
C78          O79   1.261       .  A
C78         C377   1.477       .  S
O79         Cr86   1.994   1_556  S
O80         Cr86   1.956       .  S
O80          C81   1.257       .  A
C81          O82   1.270       .  A
C81         C720   1.507       .  S
O82         Cr87   2.020       .  S
O83         Cr87   1.987       .  S
O83          C84   1.261       .  A
C84         C433   1.510       .  S
Cr85         O88   1.767       .  S
Cr86         O88   1.769       .  S
Cr87         O88   1.772       .  S
O89        Cr107   1.979       .  S
O89          C97   1.265       .  A
O90        Cr107   2.011       .  S
O90          C91   1.269       .  A
C91          O92   1.261       .  A
C91         C293   1.473       .  S
O92        Cr108   1.976       .  S
O93        Cr108   1.998       .  S
O93          C94   1.260       .  A
C94          O95   1.260       .  A
C94         C468   1.500       .  S
O95        Cr109   1.987       .  S
O96        Cr109   2.003       .  S
O96          C97   1.266       .  A
C97         C608   1.495       .  S
O98        Cr107   1.995       .  S
O98         C106   1.262       .  A
O99        Cr107   2.005       .  S
O99         C100   1.263       .  A
C100        O101   1.259       .  A
C100        C489   1.500       .  S
O101       Cr108   1.994       .  S
O102       Cr108   1.960       .  S
O102        C103   1.259       .  A
C103        O104   1.268       .  A
C103        C272   1.477       .  S
O104       Cr109   2.008       .  S
O105       Cr109   1.977       .  S
O105        C106   1.257       .  A
C106        C321   1.477       .  S
Cr107       O110   1.769       .  S
Cr108       O110   1.770       .  S
Cr109       O110   1.774       .  S
O111       Cr129   1.995       .  S
O111        C119   1.267       .  A
O112       Cr129   2.009       .  S
O112        C113   1.268       .  A
C113        O114   1.263       .  A
C113        C237   1.488       .  S
O114       Cr130   1.985       .  S
O115       Cr130   1.987       .  S
O115        C116   1.259       .  A
C116        O117   1.258       .  A
C116        C384   1.497       .  S
O117       Cr131   1.971       .  S
O118       Cr131   2.013       .  S
O118        C119   1.270       .  A
C119        C685   1.513       .  S
O120       Cr129   2.000       .  S
O120        C128   1.263       .  A
O121       Cr129   2.011       .  S
O121        C122   1.267       .  A
C122        O123   1.259       .  A
C122        C412   1.493       .  S
O123       Cr130   1.983       .  S
O124       Cr130   1.968       .  S
O124        C125   1.258       .  A
C125        O126   1.267       .  A
C125        C209   1.487       .  S
O126       Cr131   2.018       .  S
O127       Cr131   1.973       .  S
O127        C128   1.257       .  A
C128        C328   1.493       .  S
Cr129       O132   1.771       .  S
Cr130       O132   1.769       .  S
Cr131       O132   1.777       .  S
O133       Cr151   1.969       .  S
O133        C141   1.263       .  A
O134       Cr151   2.010       .  S
O134        C135   1.268       .  A
C135        O136   1.260       .  A
C135        C265   1.476       .  S
O136       Cr152   1.971       .  S
O137       Cr152   1.990       .  S
O137        C138   1.256       .  A
C138        O139   1.255       .  A
C138        C657   1.473       .  S
O139       Cr153   1.979       .  S
O140       Cr153   2.026       .  S
O140        C141   1.274       .  A
C141        C524   1.494       .  S
O142       Cr151   1.992       .  S
O142        C150   1.258       .  A
O143       Cr151   2.004       .  S
O143        C144   1.264       .  A
C144        O145   1.258       .  A
C144        C629   1.498       .  S
O145       Cr152   1.988       .  S
O146       Cr152   1.953       .  S
O146        C147   1.256       .  A
C147        O148   1.273       .  A
C147        C300   1.477       .  S
O148       Cr153   2.030       .  S
O149       Cr153   1.989       .  S
O149        C150   1.258       .  A
C150        C181   1.481       .  S
Cr151       O154   1.770       .  S
Cr152       O154   1.772       .  S
Cr153       O154   1.771       .  S
O155       Cr173   1.975       .  S
O155        C163   1.262       .  A
O156       Cr173   2.001       .  S
O156        C157   1.263       .  A
C157        O158   1.260       .  A
C157        C216   1.486       .  S
O158       Cr174   1.984       .  S
O159       Cr174   2.015       .  S
O159        C160   1.266       .  A
C160        O161   1.258       .  A
C160        C832   1.516       .  S
O161       Cr175   1.974       .  S
O162       Cr175   2.017       .  S
O162        C163   1.269       .  A
C163        C349   1.489       .  S
O164       Cr173   1.999       .  S
O164        C172   1.263       .  A
O165       Cr173   1.990       .  S
O165        C166   1.265       .  A
C166        O167   1.267       .  A
C166        C797   1.480       .  S
O167       Cr174   2.007       .  S
O168       Cr174   1.958       .  S
O168        C169   1.257       .  A
C169        O170   1.268       .  A
C169        C244   1.491       .  S
O170       Cr175   2.024       .  S
O171       Cr175   1.996       .  S
O171        C172   1.263       .  A
C172        C188   1.504       .  S
Cr173       O176   1.767       .  S
Cr174       O176   1.767       .  S
Cr175       O176   1.778       .  S
C177        C178   1.411       .  A
C177        C182   1.410       .  A
C177        C195   1.451       .  S
C178        C183   1.500   1_545  S
C178        C179   1.413       .  A
C179        C180   1.414       .  A
C179        C184   1.449       .  S
C180        C181   1.411       .  A
C180        C196   1.450       .  S
C181        C182   1.412       .  A
C182        C185   1.451       .  S
C183        C186   1.408       .  A
C183        C190   1.409       .  A
C184        N201   1.157       .  T
C185        N203   1.157       .  T
C186        C187   1.411       .  A
C186        C191   1.452       .  S
C187        C188   1.424       .  A
C187        C193   1.452       .  S
C188        C189   1.420       .  A
C189        C190   1.416       .  A
C189        C192   1.448       .  S
C190        C194   1.450       .  S
C191        N198   1.157   1_565  T
C192        N199   1.157       .  T
C193        N197   1.158       .  T
C194        N200   1.157       .  T
C195        N204   1.157   1_545  T
C196        N202   1.157       .  T
C205        C206   1.412       .  A
C205        C210   1.412       .  A
C205        C223   1.450       .  S
C206        C211   1.496       .  S
C206        C207   1.408       .  A
C207        C208   1.409       .  A
C207        C212   1.450       .  S
C208        C209   1.416       .  A
C208        C224   1.451       .  S
C209        C210   1.414       .  A
C210        C213   1.451       .  S
C211        C214   1.410       .  A
C211        C218   1.410       .  A
C212        N229   1.157       .  T
C213        N231   1.157       .  T
C214        C215   1.415       .  A
C214        C219   1.449       .  S
C215        C216   1.416       .  A
C215        C221   1.450       .  S
C216        C217   1.414       .  A
C217        C218   1.406       .  A
C217        C220   1.451       .  S
C218        C222   1.452       .  S
C219        N226   1.157       .  T
C220        N227   1.157       .  T
C221        N225   1.157       .  T
C222        N228   1.157       .  T
C223        N232   1.158       .  T
C224        N230   1.158       .  T
C233        C234   1.412       .  A
C233        C238   1.414       .  A
C233        C251   1.449       .  S
C234        C239   1.494   1_455  S
C234        C235   1.408       .  A
C235        C236   1.407       .  A
C235        C240   1.452       .  S
C236        C237   1.417       .  A
C236        C252   1.451       .  S
C237        C238   1.413       .  A
C238        C241   1.450       .  S
C239        C242   1.411       .  A
C239        C246   1.408       .  A
C240        N257   1.158       .  T
C241        N259   1.158       .  T
C242        C243   1.416       .  A
C242        C247   1.449       .  S
C243        C244   1.417       .  A
C243        C249   1.449       .  S
C244        C245   1.419       .  A
C245        C246   1.404       .  A
C245        C248   1.453       .  S
C246        C250   1.453       .  S
C247        N254   1.157   1_655  T
C248        N255   1.157       .  T
C249        N253   1.157       .  T
C250        N256   1.157       .  T
C251        N260   1.157   1_455  T
C252        N258   1.157       .  T
C261        C262   1.408       .  A
C261        C266   1.410       .  A
C261        C279   1.450       .  S
C262        C267   1.487       .  S
C262        C263   1.411       .  A
C263        C264   1.404       .  A
C263        C268   1.453       .  S
C264        C265   1.411       .  A
C264        C280   1.450       .  S
C265        C266   1.415       .  A
C266        C269   1.451       .  S
C267        C270   1.411       .  A
C267        C274   1.408       .  A
C268        N285   1.157       .  T
C269        N287   1.158       .  T
C270        C271   1.407       .  A
C270        C275   1.451       .  S
C271        C272   1.412       .  A
C271        C277   1.451       .  S
C272        C273   1.415       .  A
C273        C274   1.406       .  A
C273        C276   1.451       .  S
C274        C278   1.451       .  S
C275        N282   1.157       .  T
C276        N283   1.157       .  T
C277        N281   1.158       .  T
C278        N284   1.157       .  T
C279        N288   1.157       .  T
C280        N286   1.156       .  T
C289        C290   1.410       .  A
C289        C294   1.408       .  A
C289        C307   1.451       .  S
C290        C295   1.494   1_455  S
C290        C291   1.414       .  A
C291        C292   1.410       .  A
C291        C296   1.450   1_455  S
C292        C293   1.409       .  A
C292        C308   1.451       .  S
C293        C294   1.411       .  A
C294        C297   1.451       .  S
C295        C298   1.410       .  A
C295        C302   1.412       .  A
C296        N313   1.157       .  T
C297        N315   1.157       .  T
C298        C299   1.404       .  A
C298        C303   1.453       .  S
C299        C300   1.414       .  A
C299        C305   1.452       .  S
C300        C301   1.411       .  A
C301        C302   1.414       .  A
C301        C304   1.449       .  S
C302        C306   1.449       .  S
C303        N310   1.157       .  T
C304        N311   1.157       .  T
C305        N309   1.157       .  T
C306        N312   1.157   1_655  T
C307        N316   1.157       .  T
C308        N314   1.157       .  T
C317        C318   1.410       .  A
C317        C322   1.410       .  A
C317        C335   1.451       .  S
C318        C323   1.494       .  S
C318        C319   1.412       .  A
C319        C320   1.409       .  A
C319        C324   1.450       .  S
C320        C321   1.410       .  A
C320        C336   1.449       .  S
C321        C322   1.413       .  A
C322        C325   1.451       .  S
C323        C326   1.409       .  A
C323        C330   1.408       .  A
C324        N341   1.157       .  T
C325        N343   1.157       .  T
C326        C327   1.409       .  A
C326        C331   1.452       .  S
C327        C328   1.420       .  A
C327        C333   1.452       .  S
C328        C329   1.419       .  A
C329        C330   1.411       .  A
C329        C332   1.450       .  S
C330        C334   1.451       .  S
C331        N338   1.157       .  T
C332        N339   1.157       .  T
C333        N337   1.158       .  T
C334        N340   1.158       .  T
C335        N344   1.157       .  T
C336        N342   1.157       .  T
C345        C346   1.410       .  A
C345        C350   1.409       .  A
C345        C363   1.452       .  S
C346        C351   1.499       .  S
C346        C347   1.412       .  A
C347        C348   1.413       .  A
C347        C352   1.450       .  S
C348        C349   1.414       .  A
C348        C364   1.449       .  S
C349        C350   1.417       .  A
C350        C353   1.451       .  S
C351        C354   1.411       .  A
C351        C358   1.410       .  A
C352        N369   1.157       .  T
C353        N371   1.157       .  T
C354        C355   1.412       .  A
C354        C359   1.452       .  S
C355        C356   1.419       .  A
C355        C361   1.451       .  S
C356        C357   1.419       .  A
C357        C358   1.410       .  A
C357        C360   1.452       .  S
C358        C362   1.452       .  S
C359        N366   1.157       .  T
C360        N367   1.158       .  T
C361        N365   1.157       .  T
C362        N368   1.157       .  T
C363        N372   1.157       .  T
C364        N370   1.157       .  T
C373        C374   1.411       .  A
C373        C378   1.411       .  A
C373        C391   1.449       .  S
C374        C379   1.493       .  S
C374        C375   1.410       .  A
C375        C376   1.407       .  A
C375        C380   1.452       .  S
C376        C377   1.412       .  A
C376        C392   1.449       .  S
C377        C378   1.411       .  A
C378        C381   1.451       .  S
C379        C382   1.406       .  A
C379        C386   1.410       .  A
C380        N397   1.157       .  T
C381        N399   1.157       .  T
C382        C383   1.409       .  A
C382        C387   1.452       .  S
C383        C384   1.426       .  A
C383        C389   1.452       .  S
C384        C385   1.419       .  A
C385        C386   1.409       .  A
C385        C388   1.453       .  S
C386        C390   1.450       .  S
C387        N394   1.157       .  T
C388        N395   1.158       .  T
C389        N393   1.158       .  T
C390        N396   1.157       .  T
C391        N400   1.158       .  T
C392        N398   1.157       .  T
C401        C402   1.411       .  A
C401        C406   1.408       .  A
C401        C419   1.452       .  S
C402        C407   1.493       .  S
C402        C403   1.409       .  A
C403        C404   1.411       .  A
C403        C408   1.450       .  S
C404        C405   1.416       .  A
C404        C420   1.451       .  S
C405        C406   1.414       .  A
C406        C409   1.451       .  S
C407        C410   1.410       .  A
C407        C414   1.405       .  A
C408        N425   1.157       .  T
C409        N427   1.157       .  T
C410        C411   1.416       .  A
C410        C415   1.450       .  S
C411        C412   1.417       .  A
C411        C417   1.449       .  S
C412        C413   1.423       .  A
C413        C414   1.405       .  A
C413        C416   1.451       .  S
C414        C418   1.454       .  S
C415        N422   1.157       .  T
C416        N423   1.156       .  T
C417        N421   1.158       .  T
C418        N424   1.158       .  T
C419        N428   1.157       .  T
C420        N426   1.157       .  T
C429        C430   1.408       .  A
C429        C434   1.414       .  A
C429        C447   1.453       .  S
C430        C435   1.504   1_564  S
C430        C431   1.409       .  A
C431        C432   1.417       .  A
C431        C436   1.450   1_554  S
C432        C433   1.423       .  A
C432        C448   1.452       .  S
C433        C434   1.426       .  A
C434        C437   1.450       .  S
C435        C438   1.409       .  A
C435        C442   1.411   1_556  A
C436        N453   1.158       .  T
C437        N455   1.158       .  T
C438        C439   1.414       .  A
C438        C443   1.452       .  S
C439        C440   1.423       .  A
C439        C445   1.450       .  S
C440        C441   1.417   1_556  A
C441        C442   1.415       .  A
C441        C444   1.450       .  S
C442        C446   1.450       .  S
C443        N450   1.157   1_545  T
C444        N451   1.156       .  T
C445        N449   1.159       .  T
C446        N452   1.158       .  T
C447        N456   1.157   1_565  T
C448        N454   1.157       .  T
C457        C458   1.413       .  A
C457        C462   1.411       .  A
C457        C475   1.452       .  S
C458        C463   1.504       .  S
C458        C459   1.414       .  A
C459        C460   1.412       .  A
C459        C464   1.451       .  S
C460        C461   1.413       .  A
C460        C476   1.451       .  S
C461        C462   1.416       .  A
C462        C465   1.451       .  S
C463        C466   1.412       .  A
C463        C470   1.413       .  A
C464        N481   1.158       .  T
C465        N483   1.158       .  T
C466        C467   1.415       .  A
C466        C471   1.451       .  S
C467        C468   1.423       .  A
C467        C473   1.452       .  S
C468        C469   1.415       .  A
C469        C470   1.409       .  A
C469        C472   1.449       .  S
C470        C474   1.452       .  S
C471        N478   1.157       .  T
C472        N479   1.157       .  T
C473        N477   1.158       .  T
C474        N480   1.157       .  T
C475        N484   1.157       .  T
C476        N482   1.156       .  T
C485        C486   1.411       .  A
C485        C490   1.417       .  A
C485        C503   1.450       .  S
C486        C491   1.499       .  S
C486        C487   1.408       .  A
C487        C488   1.407       .  A
C487        C492   1.453       .  S
C488        C489   1.423       .  A
C488        C504   1.453       .  S
C489        C490   1.419       .  A
C490        C493   1.449       .  S
C491        C494   1.409       .  A
C491        C498   1.411       .  A
C492        N509   1.158       .  T
C493        N511   1.158       .  T
C494        C495   1.409       .  A
C494        C499   1.452       .  S
C495        C496   1.420       .  A
C495        C501   1.452       .  S
C496        C497   1.419       .  A
C497        C498   1.415       .  A
C497        C500   1.450       .  S
C498        C502   1.450       .  S
C499        N506   1.158       .  T
C500        N507   1.158       .  T
C501        N505   1.157       .  T
C502        N508   1.157       .  T
C503        N512   1.157       .  T
C504        N510   1.157       .  T
C513        C514   1.409       .  A
C513        C518   1.412       .  A
C513        C531   1.453       .  S
C514        C519   1.501       .  S
C514        C515   1.409       .  A
C515        C516   1.415       .  A
C515        C520   1.450       .  S
C516        C517   1.422       .  A
C516        C532   1.452       .  S
C517        C518   1.421       .  A
C518        C521   1.448       .  S
C519        C522   1.411       .  A
C519        C526   1.410       .  A
C520        N537   1.158       .  T
C521        N539   1.157       .  T
C522        C523   1.413       .  A
C522        C527   1.451       .  S
C523        C524   1.416       .  A
C523        C529   1.450       .  S
C524        C525   1.418       .  A
C525        C526   1.413       .  A
C525        C528   1.451       .  S
C526        C530   1.450       .  S
C527        N534   1.157       .  T
C528        N535   1.157       .  T
C529        N533   1.157       .  T
C530        N536   1.157       .  T
C531        N540   1.157       .  T
C532        N538   1.157       .  T
C541        C542   1.411       .  A
C541        C546   1.404   1_455  A
C541        C559   1.452   1_554  S
C542        C547   1.490       .  S
C542        C543   1.408   1_455  A
C543        C544   1.413       .  A
C543        C548   1.450       .  S
C544        C545   1.416       .  A
C544        C560   1.449       .  S
C545        C546   1.414       .  A
C546        C549   1.453   1_554  S
C547        C550   1.405       .  A
C547        C554   1.410   1_554  A
C548        N565   1.156   1_655  T
C549        N567   1.157       .  T
C550        C551   1.403       .  A
C550        C555   1.455       .  S
C551        C552   1.423   1_554  A
C551        C557   1.451       .  S
C552        C553   1.415       .  A
C553        C554   1.414       .  A
C553        C556   1.450       .  S
C554        C558   1.449       .  S
C555        N562   1.157       .  T
C556        N563   1.157       .  T
C557        N561   1.158       .  T
C558        N564   1.158       .  T
C559        N568   1.158       .  T
C560        N566   1.158       .  T
C569        C570   1.408   1_556  A
C569        C574   1.407   1_556  A
C569        C587   1.451       .  S
C570        C575   1.491       .  S
C570        C571   1.411       .  A
C571        C572   1.411       .  A
C571        C576   1.449       .  S
C572        C573   1.408       .  A
C572        C588   1.449       .  S
C573        C574   1.411       .  A
C574        C577   1.448   1_554  S
C575        C578   1.409       .  A
C575        C582   1.406       .  A
C576        N593   1.157       .  T
C577        N595   1.156       .  T
C578        C579   1.408       .  A
C578        C583   1.452       .  S
C579        C580   1.419   1_554  A
C579        C585   1.453       .  S
C580        C581   1.421       .  A
C581        C582   1.411   1_556  A
C581        C584   1.450       .  S
C582        C586   1.451       .  S
C583        N590   1.158       .  T
C584        N591   1.158       .  T
C585        N589   1.157       .  T
C586        N592   1.157       .  T
C587        N596   1.158       .  T
C588        N594   1.158       .  T
C597        C598   1.410   1_655  A
C597        C602   1.410       .  A
C597        C615   1.453       .  S
C598        C603   1.503       .  S
C598        C599   1.410   1_455  A
C599        C600   1.413       .  A
C599        C604   1.452   1_655  S
C600        C601   1.424       .  A
C600        C616   1.450       .  S
C601        C602   1.424       .  A
C602        C605   1.449       .  S
C603        C606   1.413       .  A
C603        C610   1.413       .  A
C604        N621   1.157       .  T
C605        N623   1.156       .  T
C606        C607   1.410       .  A
C606        C611   1.452       .  S
C607        C608   1.418       .  A
C607        C613   1.451       .  S
C608        C609   1.416       .  A
C609        C610   1.412       .  A
C609        C612   1.451       .  S
C610        C614   1.451   1_455  S
C611        N618   1.157       .  T
C612        N619   1.157       .  T
C613        N617   1.158       .  T
C614        N620   1.158       .  T
C615        N624   1.157       .  T
C616        N622   1.158       .  T
C625        C626   1.410       .  A
C625        C630   1.414       .  A
C625        C643   1.450       .  S
C626        C631   1.494       .  S
C626        C627   1.406       .  A
C627        C628   1.406       .  A
C627        C632   1.454       .  S
C628        C629   1.426       .  A
C628        C644   1.454       .  S
C629        C630   1.419       .  A
C630        C633   1.450       .  S
C631        C634   1.409       .  A
C631        C638   1.410       .  A
C632        N649   1.157       .  T
C633        N651   1.158       .  T
C634        C635   1.407       .  A
C634        C639   1.452       .  S
C635        C636   1.412       .  A
C635        C641   1.447       .  S
C636        C637   1.418       .  A
C637        C638   1.414       .  A
C637        C640   1.450       .  S
C638        C642   1.450       .  S
C639        N646   1.157       .  T
C640        N647   1.157       .  T
C641        N645   1.156       .  T
C642        N648   1.157       .  T
C643        N652   1.157       .  T
C644        N650   1.158       .  T
C653        C654   1.412       .  A
C653        C658   1.410       .  A
C653        C671   1.451       .  S
C654        C659   1.491       .  S
C654        C655   1.409       .  A
C655        C656   1.407       .  A
C655        C660   1.450       .  S
C656        C657   1.411       .  A
C656        C672   1.451       .  S
C657        C658   1.410       .  A
C658        C661   1.450       .  S
C659        C662   1.408       .  A
C659        C666   1.412       .  A
C660        N677   1.158       .  T
C661        N679   1.158       .  T
C662        C663   1.403       .  A
C662        C667   1.453       .  S
C663        C664   1.416       .  A
C663        C669   1.453       .  S
C664        C665   1.413       .  A
C665        C666   1.415       .  A
C665        C668   1.449       .  S
C666        C670   1.449       .  S
C667        N674   1.158       .  T
C668        N675   1.158       .  T
C669        N673   1.157       .  T
C670        N676   1.157       .  T
C671        N680   1.157       .  T
C672        N678   1.156       .  T
C681        C682   1.410       .  A
C681        C686   1.416       .  A
C681        C699   1.452   1_455  S
C682        C687   1.508       .  S
C682        C683   1.409       .  A
C683        C684   1.417       .  A
C683        C688   1.450       .  S
C684        C685   1.424       .  A
C684        C700   1.451       .  S
C685        C686   1.422       .  A
C686        C689   1.448       .  S
C687        C690   1.410   1_455  A
C687        C694   1.411       .  A
C688        N705   1.158       .  T
C689        N707   1.157       .  T
C690        C691   1.416       .  A
C690        C695   1.450       .  S
C691        C692   1.419       .  A
C691        C697   1.450       .  S
C692        C693   1.417       .  A
C693        C694   1.417   1_655  A
C693        C696   1.447       .  S
C694        C698   1.450       .  S
C695        N702   1.157       .  T
C696        N703   1.156   1_655  T
C697        N701   1.158       .  T
C698        N704   1.157       .  T
C699        N708   1.157       .  T
C700        N706   1.157       .  T
C709        C710   1.410   1_656  A
C709        C714   1.413       .  A
C709        C727   1.449   1_655  S
C710        C715   1.491       .  S
C710        C711   1.409       .  A
C711        C712   1.404   1_455  A
C711        C716   1.453       .  S
C712        C713   1.418   1_554  A
C712        C728   1.453       .  S
C713        C714   1.414       .  A
C714        C717   1.449       .  S
C715        C718   1.406       .  A
C715        C722   1.406   1_554  A
C716        N733   1.157       .  T
C717        N735   1.157       .  T
C718        C719   1.412       .  A
C718        C723   1.451       .  S
C719        C720   1.424       .  A
C719        C725   1.449       .  S
C720        C721   1.428   1_554  A
C721        C722   1.407       .  A
C721        C724   1.451       .  S
C722        C726   1.454       .  S
C723        N730   1.157       .  T
C724        N731   1.156       .  T
C725        N729   1.158       .  T
C726        N732   1.158       .  T
C727        N736   1.157       .  T
C728        N734   1.158       .  T
C737        C738   1.408       .  A
C737        C742   1.413       .  A
C737        C755   1.449   1_556  S
C738        C743   1.490   1_556  S
C738        C739   1.409       .  A
C739        C740   1.404       .  A
C739        C744   1.452       .  S
C740        C741   1.416       .  A
C740        C756   1.452       .  S
C741        C742   1.416       .  A
C742        C745   1.448       .  S
C743        C746   1.413       .  A
C743        C750   1.409   1_554  A
C744        N761   1.157       .  T
C745        N763   1.157       .  T
C746        C747   1.407       .  A
C746        C751   1.452       .  S
C747        C748   1.408       .  A
C747        C753   1.450       .  S
C748        C749   1.412       .  A
C749        C750   1.409   1_554  A
C749        C752   1.451   1_554  S
C750        C754   1.449       .  S
C751        N758   1.157       .  T
C752        N759   1.157       .  T
C753        N757   1.157       .  T
C754        N760   1.157       .  T
C755        N764   1.157       .  T
C756        N762   1.157       .  T
C765        C766   1.414   1_556  A
C765        C770   1.415       .  A
C765        C783   1.451       .  S
C766        C771   1.511       .  S
C766        C767   1.414       .  A
C767        C768   1.416       .  A
C767        C772   1.451       .  S
C768        C769   1.416   1_554  A
C768        C784   1.448       .  S
C769        C770   1.415       .  A
C770        C773   1.450       .  S
C771        C774   1.415       .  A
C771        C778   1.414       .  A
C772        N789   1.157       .  T
C773        N791   1.156       .  T
C774        C775   1.415       .  A
C774        C779   1.451       .  S
C775        C776   1.416       .  A
C775        C781   1.450       .  S
C776        C777   1.414       .  A
C777        C778   1.415       .  A
C777        C780   1.449   1_554  S
C778        C782   1.450   1_554  S
C779        N786   1.157       .  T
C780        N787   1.157       .  T
C781        N785   1.157       .  T
C782        N788   1.157       .  T
C783        N792   1.158       .  T
C784        N790   1.157       .  T
C793        C794   1.411       .  A
C793        C798   1.412       .  A
C793        C811   1.450       .  S
C794        C799   1.498       .  S
C794        C795   1.412       .  A
C795        C796   1.411       .  A
C795        C800   1.451       .  S
C796        C797   1.412       .  A
C796        C812   1.451       .  S
C797        C798   1.412       .  A
C798        C801   1.450       .  S
C799        C802   1.410       .  A
C799        C806   1.409       .  A
C800        N817   1.157       .  T
C801        N819   1.157       .  T
C802        C803   1.416       .  A
C802        C807   1.450       .  S
C803        C804   1.420       .  A
C803        C809   1.451       .  S
C804        C805   1.416       .  A
C805        C806   1.409       .  A
C805        C808   1.450       .  S
C806        C810   1.452       .  S
C807        N814   1.158       .  T
C808        N815   1.157       .  T
C809        N813   1.157       .  T
C810        N816   1.157       .  T
C811        N820   1.157       .  T
C812        N818   1.158       .  T
C821        C822   1.409       .  A
C821        C826   1.413       .  A
C821        C839   1.450       .  S
C822        C827   1.501       .  S
C822        C823   1.409       .  A
C823        C824   1.414       .  A
C823        C828   1.452       .  S
C824        C825   1.418       .  A
C824        C840   1.446       .  S
C825        C826   1.419       .  A
C826        C829   1.450       .  S
C827        C830   1.406       .  A
C827        C834   1.408       .  A
C828        N845   1.157       .  T
C829        N847   1.156       .  T
C830        C831   1.416       .  A
C830        C835   1.451       .  S
C831        C832   1.428       .  A
C831        C837   1.450       .  S
C832        C833   1.428       .  A
C833        C834   1.412       .  A
C833        C836   1.453       .  S
C834        C838   1.452       .  S
C835        N842   1.157       .  T
C836        N843   1.157       .  T
C837        N841   1.158       .  T
C838        N844   1.158       .  T
C839        N848   1.158       .  T
C840        N846   1.157       .  T
