geometry optimzed in LAMMPS
_audit_creation_date              2020-12-01 
_audit_creation_method            'lammps2cif' 
_symmetry_space_group_name_H-M    'P1' 
_symmetry_Int_Tables_number       1 
_symmetry_cell_setting            triclinic 
loop_ 
_symmetry_equiv_pos_as_xyz 
  x,y,z 
_cell_length_a                    36.89699386 
_cell_length_b                    28.000289592434246 
_cell_length_c                    45.815686016790735 
_cell_angle_alpha                 90.20778531573664 
_cell_angle_beta                  90.05254440898756 
_cell_angle_gamma                 89.97822322436377 
loop_ 
_atom_site_label 
_atom_site_type_symbol 
_atom_site_fract_x 
_atom_site_fract_y 
_atom_site_fract_z 
_atom_site_charge 
Fe1        Fe  0.90774725  0.22786240  0.96959642     1.65800
Fe2        Fe  0.86900232  0.18592868  0.02969489     1.73200
Fe3        Fe  0.93691769  0.12401485  0.99784135     1.54400
O4          O  0.93101608  0.11798882  0.95163924    -0.81600
O5          O  0.90755214  0.18028935  0.06159101    -0.79900
O6          O  0.89454211  0.17822237  0.93898550    -0.84100
O7          O  0.96246401  0.21863822  0.96215218    -0.79000
O8          O  0.89359787  0.07616938  0.00023368    -0.80800
O9          O  0.87496939  0.26035613  0.03148207    -0.83500
C10         C  0.98757015  0.20488385  0.97901149     0.97300
C11         C  0.90815287  0.13746195  0.93416921     1.04700
O12         O  0.90488650  0.17898127  0.99941021    -1.12500
O13         O  0.82909833  0.19071530  0.99888062    -0.74900
O14         O  0.85352660  0.24569450  0.97082434    -0.78400
O15         O  0.98251248  0.16956184  0.99601446    -0.79100
C16         C  0.82646963  0.22126458  0.97875733     0.96200
O17         O  0.91942879  0.27866187  0.00054094    -0.77100
O18         O  0.85719034  0.11317785  0.03169411    -0.82300
C19         C  0.93225500  0.14921036  0.06480931     0.98800
C20         C  0.86549852  0.07676197  0.01638219     1.04700
O21         O  0.94367388  0.12291179  0.04378218    -0.77900
C22         C  0.89790393  0.28982525  0.02107419     1.03000
Fe23       Fe  0.87141171  0.23051172  0.78476682     1.65800
Fe24       Fe  0.91648534  0.18973172  0.72635443     1.73200
Fe25       Fe  0.84586338  0.12664750  0.75295646     1.54400
O26         O  0.84850432  0.11736796  0.79896681    -0.81600
O27         O  0.88085734  0.18589431  0.69218028    -0.79900
O28         O  0.87955292  0.18027494  0.81585555    -0.84100
O29         O  0.81537110  0.22436357  0.78728418    -0.79000
O30         O  0.88896657  0.07901684  0.75131151    -0.80800
O31         O  0.91141810  0.26427280  0.72559319    -0.83500
C32         C  0.79224725  0.20626420  0.77003043     0.97300
C33         C  0.86774238  0.13814146  0.81859122     1.04700
O34         O  0.87761422  0.18205120  0.75446246    -1.12500
O35         O  0.95376452  0.19314184  0.75943528    -0.74900
O36         O  0.92627901  0.24566115  0.78817673    -0.78400
O37         O  0.79995296  0.17057870  0.75389898    -0.79100
C38         C  0.95438435  0.22298937  0.78028388     0.96200
O39         O  0.86451403  0.28265253  0.75406235    -0.77100
O40         O  0.92836619  0.11692940  0.72302232    -0.82300
C41         C  0.85559985  0.15625987  0.68705896     0.98800
C42         C  0.91824267  0.07985940  0.73674154     1.04700
O43         O  0.84228144  0.12921097  0.70686675    -0.77900
C44         C  0.88800260  0.29395592  0.73511797     1.03000
Fe45       Fe  0.60739984  0.29210638  0.97476868     1.65800
Fe46       Fe  0.67350453  0.34111662  0.01303762     1.73200
Fe47       Fe  0.59720906  0.40445679  0.00073998     1.54400
O48         O  0.57979292  0.39971532  0.95639781    -0.81600
O49         O  0.65522575  0.35662982  0.05325468    -0.79900
O50         O  0.60441947  0.33251564  0.93845255    -0.84100
O51         O  0.55383159  0.30638035  0.98345230    -0.79000
O52         O  0.63916621  0.44840197  0.98668262    -0.80800
O53         O  0.66684951  0.26765742  0.02317359    -0.83500
C54         C  0.53715015  0.33085955  0.00241893     0.97300
C55         C  0.58834289  0.37214008  0.93492026     1.04700
O56         O  0.62561649  0.34648622  0.99667081    -1.12500
O57         O  0.69348687  0.32824572  0.97247953    -0.74900
O58         O  0.65831709  0.26729234  0.96188053    -0.78400
O59         O  0.55191682  0.36613758  0.01540398    -0.79100
C60         C  0.68864043  0.28845622  0.96035339     0.96200
O61         O  0.60978465  0.25089456  0.01144266    -0.77100
O62         O  0.68695118  0.41223511  0.00646873    -0.82300
C63         C  0.63700265  0.39239403  0.06152459     0.98800
C64         C  0.67232657  0.44793240  0.99416844     1.04700
O65         O  0.61464009  0.41444944  0.04473735    -0.77900
C66         C  0.63896915  0.24051925  0.02462505     1.03000
Fe67       Fe  0.67646792  0.29290972  0.27156267     1.65800
Fe68       Fe  0.61483270  0.33593541  0.22600798     1.73200
Fe69       Fe  0.68358292  0.40687457  0.24750201     1.54400
O70         O  0.69674858  0.40211932  0.29240798    -0.81600
O71         O  0.63915672  0.35518626  0.18835575    -0.79900
O72         O  0.67248082  0.33359602  0.30793393    -0.84100
O73         O  0.73007343  0.31190739  0.26695336    -0.79000
O74         O  0.63659618  0.44545169  0.25888526    -0.80800
O75         O  0.62704562  0.26411243  0.21630290    -0.83500
C76         C  0.74705485  0.33727897  0.24869923     0.97300
C77         C  0.68744049  0.37352831  0.31287963     1.04700
O78         O  0.65858875  0.34563905  0.24808520    -1.12500
O79         O  0.58757393  0.31849302  0.26322904    -0.74900
O80         O  0.62553136  0.26419108  0.28028958    -0.78400
O81         O  0.73214695  0.37238360  0.23562364    -0.79100
C82         C  0.59396178  0.28173177  0.27820244     0.96200
O83         O  0.68129525  0.25002382  0.23555140    -0.77100
O84         O  0.59701524  0.40518891  0.23196119    -0.82300
C85         C  0.65503149  0.39430375  0.18323135     0.98800
C86         C  0.60512520  0.44118777  0.24753771     1.04700
O87         O  0.67168580  0.41842377  0.20287925    -0.77900
C88         C  0.65530690  0.23807219  0.21895035     1.03000
Fe89       Fe  0.37359231  0.22346697  0.28229022     1.65800
Fe90       Fe  0.40803598  0.18078557  0.22051308     1.73200
Fe91       Fe  0.34186063  0.12046951  0.25459901     1.54400
O92         O  0.34865850  0.11534201  0.30085808    -0.81600
O93         O  0.36717020  0.17768209  0.19051749    -0.79900
O94         O  0.38718317  0.17375820  0.31229112    -0.84100
O95         O  0.31857037  0.21626997  0.29051878    -0.79000
O96         O  0.38488161  0.07255163  0.25219502    -0.80800
O97         O  0.40426194  0.25581569  0.21989123    -0.83500
C98         C  0.29339146  0.20416710  0.27315214     0.97300
C99         C  0.37313337  0.13360643  0.31748774     1.04700
O100        O  0.37425899  0.17469065  0.25223138    -1.12500
O101        O  0.44996153  0.18312351  0.24938732    -0.74900
O102        O  0.42853785  0.23806538  0.27947900    -0.78400
O103        O  0.29738921  0.16786241  0.25649760    -0.79100
C104        C  0.45461070  0.21321578  0.26964009     0.96200
O105        O  0.36153825  0.27476094  0.25222838    -0.77100
O106        O  0.41752858  0.10715863  0.21743784    -0.82300
C107        C  0.34445925  0.14416221  0.18727838     0.98800
C108        C  0.41145731  0.07215422  0.23450984     1.04700
O109        O  0.33456184  0.11733136  0.20848169    -0.77900
C110        C  0.38276639  0.28600709  0.23165410     1.03000
Fe111      Fe  0.40993156  0.22623098  0.46596934     1.65800
Fe112      Fe  0.36429159  0.18774727  0.52455131     1.73200
Fe113      Fe  0.43497172  0.12293093  0.49871419     1.54400
O114        O  0.43259203  0.11103275  0.45297858    -0.81600
O115        O  0.40020184  0.18595999  0.55860002    -0.79900
O116        O  0.40438357  0.17498608  0.43479078    -0.84100
O117        O  0.46613966  0.22257353  0.46579680    -0.79000
O118        O  0.39182596  0.07538751  0.50115225    -0.80800
O119        O  0.36789243  0.26247592  0.52442890    -0.83500
C120        C  0.48925848  0.20271871  0.48230802     0.97300
C121        C  0.41511142  0.13223817  0.43263440     1.04700
O122        O  0.40337946  0.17875825  0.49655099    -1.12500
O123        O  0.32680297  0.18865887  0.49155241    -0.74900
O124        O  0.35478712  0.23764421  0.46101441    -0.78400
O125        O  0.48138787  0.16592268  0.49725599    -0.79100
C126        C  0.32658817  0.21561897  0.46946003     0.96200
O127        O  0.41450535  0.28055193  0.49590847    -0.77100
O128        O  0.35323217  0.11540865  0.52913166    -0.82300
C129        C  0.42525730  0.15613833  0.56402983     0.98800
C130        C  0.36312867  0.07721757  0.51640545     1.04700
O131        O  0.43833069  0.12798633  0.54458782    -0.77900
C132        C  0.39062781  0.29240054  0.51441079     1.03000
Fe133      Fe  0.17349279  0.28736563  0.76806262     1.65800
Fe134      Fe  0.10742971  0.33668373  0.72901057     1.73200
Fe135      Fe  0.18335064  0.40083048  0.74336917     1.54400
O136        O  0.19923215  0.39654773  0.78782390    -0.81600
O137        O  0.12668164  0.35467575  0.68934647    -0.79900
O138        O  0.17715712  0.32752147  0.80482853    -0.84100
O139        O  0.22693516  0.30086847  0.75885469    -0.79000
O140        O  0.14038873  0.44424072  0.75672597    -0.80800
O141        O  0.11491201  0.26402060  0.71759956    -0.83500
C142        C  0.24435637  0.32746797  0.74160328     0.97300
C143        C  0.19143789  0.36823167  0.80890861     1.04700
O144        O  0.15505605  0.34216707  0.74651023    -1.12500
O145        O  0.08545434  0.32058429  0.76843876    -0.74900
O146        O  0.12285037  0.26314410  0.78196026    -0.78400
O147        O  0.22997436  0.36378569  0.72955860    -0.79100
C148        C  0.09231190  0.28383298  0.78329734     0.96200
O149        O  0.17096068  0.24565705  0.73135119    -0.77100
O150        O  0.09262922  0.40731972  0.73730707    -0.82300
C151        C  0.14589994  0.38994561  0.68181206     0.98800
C152        C  0.10698396  0.44314654  0.74988216     1.04700
O153        O  0.16792124  0.41113818  0.69925512    -0.77900
C154        C  0.14232853  0.23603994  0.71722877     1.03000
Fe155      Fe  0.10996134  0.29108712  0.47499243     1.65800
Fe156      Fe  0.17522151  0.34486501  0.51270764     1.73200
Fe157      Fe  0.09825159  0.40548810  0.49670731     1.54400
O158        O  0.08292746  0.39714269  0.45214838    -0.81600
O159        O  0.15583152  0.36474552  0.55204772    -0.79900
O160        O  0.10659229  0.32755437  0.43729622    -0.84100
O161        O  0.05596562  0.30360113  0.48288418    -0.79000
O162        O  0.14073861  0.44967331  0.48286474    -0.80800
O163        O  0.16871927  0.27281611  0.52520269    -0.83500
C164        C  0.03869330  0.33008074  0.50037114     0.97300
C165        C  0.09119904  0.36703149  0.43193592     1.04700
O166        O  0.12754870  0.34788662  0.49505533    -1.12500
O167        O  0.19736674  0.32715189  0.47341522    -0.74900
O168        O  0.16115103  0.26692036  0.46265382    -0.78400
O169        O  0.05252052  0.36776931  0.51126632    -0.79100
C170        C  0.19138784  0.28813867  0.46045716     0.96200
O171        O  0.11233265  0.25370590  0.51296551    -0.77100
O172        O  0.18841837  0.41526648  0.50392641    -0.82300
C173        C  0.13425830  0.39796433  0.55909192     0.98800
C174        C  0.17377439  0.45026025  0.49092514     1.04700
O175        O  0.11239236  0.41791877  0.54102507    -0.77900
C176        C  0.14136307  0.24490961  0.52666471     1.03000
Fe177      Fe  0.67655883  0.78990030  0.77147290     1.65800
Fe178      Fe  0.61102471  0.83930161  0.73252214     1.73200
Fe179      Fe  0.68590493  0.90393757  0.74863706     1.54400
O180        O  0.70190829  0.89714860  0.79302425    -0.81600
O181        O  0.63117903  0.85771838  0.69332996    -0.79900
O182        O  0.67842390  0.82816980  0.80883655    -0.84100
O183        O  0.73014424  0.80537113  0.76381387    -0.79000
O184        O  0.64210917  0.94571793  0.76288399    -0.80800
O185        O  0.61920875  0.76701631  0.72095484    -0.83500
C186        C  0.74774580  0.83223960  0.74679729     0.97300
C187        C  0.69383821  0.86791891  0.81360133     1.04700
O188        O  0.65814816  0.84501593  0.75059812    -1.12500
O189        O  0.58849250  0.82243000  0.77168018    -0.74900
O190        O  0.62560631  0.76370634  0.78338731    -0.78400
O191        O  0.73308599  0.86811372  0.73441203    -0.79100
C192        C  0.59483208  0.78385795  0.78484419     0.96200
O193        O  0.67582687  0.75073611  0.73397758    -0.77100
O194        O  0.59599870  0.90971657  0.74048428    -0.82300
C195        C  0.64957831  0.89399840  0.68635047     0.98800
C196        C  0.60926950  0.94501980  0.75431300     1.04700
O197        O  0.67055032  0.91594049  0.70436773    -0.77900
C198        C  0.64727978  0.74026653  0.72003683     1.03000
Fe199      Fe  0.60961719  0.78842826  0.47758006     1.65800
Fe200      Fe  0.67553061  0.83759516  0.51771207     1.73200
Fe201      Fe  0.60026853  0.90225140  0.50150919     1.54400
O202        O  0.58593632  0.89641997  0.45679023    -0.81600
O203        O  0.65694999  0.86075751  0.55705117    -0.79900
O204        O  0.60852551  0.82714531  0.44027886    -0.84100
O205        O  0.55609691  0.80369318  0.48433826    -0.79000
O206        O  0.64423577  0.94513299  0.48917065    -0.80800
O207        O  0.66533103  0.76607593  0.53044131    -0.83500
C208        C  0.53869377  0.82970534  0.50193071     0.97300
C209        C  0.59387108  0.86744861  0.43591635     1.04700
O210        O  0.62829451  0.84337547  0.49933738    -1.12500
O211        O  0.69830020  0.81737055  0.47903973    -0.74900
O212        O  0.65970087  0.76128689  0.46589795    -0.78400
O213        O  0.55315091  0.86557038  0.51455796    -0.79100
C214        C  0.69086073  0.77982783  0.46499720     0.96200
O215        O  0.60976502  0.74824399  0.51473438    -0.77100
O216        O  0.69182972  0.90659778  0.50775976    -0.82300
C217        C  0.63570494  0.89457443  0.56390562     0.98800
C218        C  0.67780429  0.94291499  0.49565157     1.04700
O219        O  0.61348061  0.91367911  0.54588555    -0.77900
C220        C  0.63765678  0.73840389  0.52975190     1.03000
Fe221      Fe  0.40870585  0.72870903  0.96813843     1.65800
Fe222      Fe  0.36803709  0.68878518  0.02824006     1.73200
Fe223      Fe  0.43514020  0.62427051  0.99714557     1.54400
O224        O  0.42946127  0.61750301  0.95067076    -0.81600
O225        O  0.40611830  0.68250873  0.06010480    -0.79900
O226        O  0.39539031  0.67963454  0.93726525    -0.84100
O227        O  0.46389561  0.71873501  0.96178981    -0.79000
O228        O  0.39166471  0.57800119  0.99959445    -0.80800
O229        O  0.37583333  0.76340733  0.02987734    -0.83500
C230        C  0.48749802  0.70391434  0.97972104     0.97300
C231        C  0.40752008  0.63799668  0.93278418     1.04700
O232        O  0.40401822  0.68011609  0.99804392    -1.12500
O233        O  0.32790977  0.69466662  0.99766968    -0.74900
O234        O  0.35449915  0.74742435  0.96888974    -0.78400
O235        O  0.48094224  0.66832208  0.99604277    -0.79100
C236        C  0.32647534  0.72573994  0.97775191     0.96200
O237        O  0.42075417  0.77910027  0.99896121    -0.77100
O238        O  0.35514044  0.61602918  0.03059544    -0.82300
C239        C  0.42993513  0.65061057  0.06396054     0.98800
C240        C  0.36366438  0.57913614  0.01572526     1.04700
O241        O  0.44121700  0.62352930  0.04323645    -0.77900
C242        C  0.39981275  0.79163344  0.01952769     1.03000
Fe243      Fe  0.37480064  0.72749869  0.78277080     1.65800
Fe244      Fe  0.41801297  0.68792259  0.72299233     1.73200
Fe245      Fe  0.34738996  0.62542762  0.74995692     1.54400
O246        O  0.34974927  0.61429976  0.79601221    -0.81600
O247        O  0.38110477  0.68830214  0.68973110    -0.79900
O248        O  0.38051347  0.67661715  0.81382142    -0.84100
O249        O  0.31840377  0.72504038  0.78426525    -0.79000
O250        O  0.39025182  0.57751661  0.74755342    -0.80800
O251        O  0.41569746  0.76270774  0.72380358    -0.83500
C252        C  0.29478438  0.70642051  0.76757494     0.97300
C253        C  0.36796468  0.63488737  0.81635234     1.04700
O254        O  0.37974460  0.68008596  0.75181789    -1.12500
O255        O  0.45634570  0.68687494  0.75528092    -0.74900
O256        O  0.43041976  0.73731366  0.78639499    -0.78400
O257        O  0.30184912  0.67002819  0.75179326    -0.79100
C258        C  0.45787107  0.71403518  0.77737488     0.96200
O259        O  0.36972544  0.78130240  0.75299221    -0.77100
O260        O  0.42744730  0.61501676  0.71729140    -0.82300
C261        C  0.35649897  0.65796781  0.68421361     0.98800
C262        C  0.41834212  0.57807496  0.73153308     1.04700
O263        O  0.34385395  0.62969454  0.70373539    -0.77900
C264        C  0.39287518  0.79261088  0.73387118     1.03000
Fe265      Fe  0.10563283  0.79125822  0.98538780     1.65800
Fe266      Fe  0.16905502  0.84345321  0.02595171     1.73200
Fe267      Fe  0.09481550  0.90600637  0.00661531     1.54400
O268        O  0.07983004  0.89713830  0.96207068    -0.81600
O269        O  0.14703180  0.86289872  0.06448212    -0.79900
O270        O  0.10396122  0.82788307  0.94744410    -0.84100
O271        O  0.05171657  0.80538484  0.99291000    -0.79000
O272        O  0.13859013  0.94695378  0.99225607    -0.80800
O273        O  0.16205964  0.77064825  0.03723634    -0.83500
C274        C  0.03475854  0.83185537  0.01069914     0.97300
C275        C  0.08899756  0.86748424  0.94188924     1.04700
O276        O  0.12286980  0.84742442  0.00622504    -1.12500
O277        O  0.19289526  0.82653250  0.98748637    -0.74900
O278        O  0.15727516  0.76697444  0.97384684    -0.78400
O279        O  0.04866517  0.86962788  0.02147604    -0.79100
C280        C  0.18740074  0.78881526  0.97296580     0.96200
O281        O  0.10618851  0.75303859  0.02314198    -0.77100
O282        O  0.18330577  0.91426969  0.01802836    -0.82300
C283        C  0.12841673  0.89987685  0.06987031     0.98800
C284        C  0.17072592  0.94779507  0.00236652     1.04700
O285        O  0.10885713  0.92092363  0.05064687    -0.77900
C286        C  0.13477922  0.74249501  0.03693401     1.03000
Fe287      Fe  0.17049330  0.78914164  0.27469999     1.65800
Fe288      Fe  0.10444460  0.84184407  0.23824366     1.73200
Fe289      Fe  0.18147942  0.90284454  0.25277314     1.54400
O290        O  0.19728673  0.89373416  0.29737715    -0.81600
O291        O  0.12232612  0.86248510  0.19880495    -0.79900
O292        O  0.17196445  0.82540152  0.31254349    -0.84100
O293        O  0.22440561  0.80374688  0.26847887    -0.79000
O294        O  0.13966756  0.94797143  0.26683673    -0.80800
O295        O  0.11237654  0.76982157  0.22476063    -0.83500
C296        C  0.24112017  0.82802765  0.24969941     0.97300
C297        C  0.18830398  0.86423136  0.31773709     1.04700
O298        O  0.15225903  0.84559772  0.25497546    -1.12500
O299        O  0.08379789  0.82332504  0.27786364    -0.74900
O300        O  0.11989915  0.76234538  0.28588859    -0.78400
O301        O  0.22655541  0.86396548  0.23741667    -0.79100
C302        C  0.09001789  0.78357388  0.28969796     0.96200
O303        O  0.16956907  0.75315868  0.23617797    -0.77100
O304        O  0.09078700  0.91240500  0.24809715    -0.82300
C305        C  0.14235198  0.89702949  0.19151565     0.98800
C306        C  0.10620038  0.94820727  0.25994850     1.04700
O307        O  0.16560772  0.91618499  0.20888582    -0.77900
C308        C  0.14063146  0.74334829  0.22254196     1.03000
Fe309      Fe  0.86955562  0.72879382  0.28906528     1.65800
Fe310      Fe  0.91152774  0.69079009  0.22864935     1.73200
Fe311      Fe  0.84446556  0.62411258  0.25754725     1.54400
O312        O  0.84904009  0.61461067  0.30352028    -0.81600
O313        O  0.87376056  0.68625798  0.19589628    -0.79900
O314        O  0.88012644  0.67786325  0.31956572    -0.84100
O315        O  0.81381992  0.72079359  0.29250240    -0.79000
O316        O  0.88831647  0.57784264  0.25461730    -0.80800
O317        O  0.90526256  0.76525366  0.22857478    -0.83500
C318        C  0.79043203  0.70286641  0.27533868     0.97300
C319        C  0.86930136  0.63529995  0.32250495     1.04700
O320        O  0.87489870  0.68107039  0.25822278    -1.12500
O321        O  0.95091572  0.69488580  0.26017070    -0.74900
O322        O  0.92425260  0.74497289  0.29101141    -0.78400
O323        O  0.79786706  0.66679240  0.25943246    -0.79100
C324        C  0.95214787  0.72322900  0.28180217     0.96200
O325        O  0.86060846  0.78251806  0.25942027    -0.77100
O326        O  0.92393556  0.61827627  0.22451336    -0.82300
C327        C  0.85060159  0.65358792  0.19125329     0.98800
C328        C  0.91584931  0.58009166  0.23808528     1.04700
O329        O  0.83941591  0.62568877  0.21147177    -0.77900
C330        C  0.88279154  0.79477039  0.23966231     1.03000
Fe331      Fe  0.90987680  0.72450869  0.47117895     1.65800
Fe332      Fe  0.86565742  0.68483970  0.53005230     1.73200
Fe333      Fe  0.93564315  0.62115001  0.50272791     1.54400
O334        O  0.93286659  0.61178975  0.45648886    -0.81600
O335        O  0.90198344  0.68120796  0.56389087    -0.79900
O336        O  0.90083879  0.67395422  0.44020444    -0.84100
O337        O  0.96591302  0.71782722  0.46823640    -0.79000
O338        O  0.89238326  0.57389245  0.50405903    -0.80800
O339        O  0.87066040  0.75958667  0.53058067    -0.83500
C340        C  0.98855246  0.70188026  0.48659482     0.97300
C341        C  0.91273260  0.63188428  0.43722007     1.04700
O342        O  0.90396054  0.67657245  0.50155302    -1.12500
O343        O  0.82782862  0.68776905  0.49728389    -0.74900
O344        O  0.85508386  0.73977326  0.46834508    -0.78400
O345        O  0.98120295  0.66595983  0.50249465    -0.79100
C346        C  0.82716646  0.71670292  0.47606959     0.96200
O347        O  0.91733058  0.77698613  0.50174096    -0.77100
O348        O  0.85401832  0.61201344  0.53337183    -0.82300
C349        C  0.92658712  0.65052557  0.56887528     0.98800
C350        C  0.86343331  0.57502209  0.51906584     1.04700
O351        O  0.93926641  0.62302515  0.54890242    -0.77900
C352        C  0.89379006  0.78908304  0.52051644     1.03000
Fe353      Fe  0.87443801  0.05520234  0.46695454     1.65800
Fe354      Fe  0.91704752  0.09539279  0.52650367     1.73200
Fe355      Fe  0.84751258  0.15865543  0.49806701     1.54400
O356        O  0.85171545  0.16800885  0.45196540    -0.81600
O357        O  0.88003521  0.09908737  0.55966649    -0.79900
O358        O  0.88446368  0.10593747  0.43631153    -0.84100
O359        O  0.81877836  0.06203653  0.46303445    -0.79000
O360        O  0.89066243  0.20612823  0.50052221    -0.80800
O361        O  0.91193268  0.02089823  0.52709107    -0.83500
C362        C  0.79506330  0.07798134  0.48054631     0.97300
C363        C  0.87292402  0.14821265  0.43328232     1.04700
O364        O  0.87937269  0.10332014  0.49744680    -1.12500
O365        O  0.95557722  0.09224549  0.49438051    -0.74900
O366        O  0.92907263  0.03964928  0.46516354    -0.78400
O367        O  0.80167999  0.11409167  0.49666516    -0.79100
C368        C  0.95675488  0.06282094  0.47332548     0.96200
O369        O  0.86617911  0.00273516  0.49733920    -0.77100
O370        O  0.92858378  0.16810733  0.53011549    -0.82300
C371        C  0.85519528  0.12956835  0.56417621     0.98800
C372        C  0.91929929  0.20514168  0.51597281     1.04700
O373        O  0.84277884  0.15671622  0.54403477    -0.77900
C374        C  0.88890186  0.99126683  0.51693106     1.03000
Fe375      Fe  0.90935954  0.06419375  0.28632391     1.65800
Fe376      Fe  0.86580028  0.10380417  0.22708848     1.73200
Fe377      Fe  0.93855613  0.16485464  0.25320317     1.54400
O378        O  0.93468552  0.17779115  0.29904101    -0.81600
O379        O  0.90181248  0.10407491  0.19320657    -0.79900
O380        O  0.90312268  0.11615646  0.31673206    -0.84100
O381        O  0.96513849  0.06654087  0.28902528    -0.79000
O382        O  0.89687313  0.21466001  0.24957113    -0.80800
O383        O  0.86866830  0.02860555  0.22752144    -0.83500
C384        C  0.98989063  0.08373661  0.27314107     0.97300
C385        C  0.91559749  0.15800917  0.31906696     1.04700
O386        O  0.90496438  0.11122588  0.25527677    -1.12500
O387        O  0.82771814  0.10454201  0.25980677    -0.74900
O388        O  0.85432117  0.05344246  0.28969930    -0.78400
O389        O  0.98388247  0.11933380  0.25652635    -0.79100
C390        C  0.82666052  0.07663132  0.28143497     0.96200
O391        O  0.91462653  0.00963027  0.25670822    -0.77100
O392        O  0.85607085  0.17678998  0.22234985    -0.82300
C393        C  0.92872614  0.13081600  0.18771269     0.98800
C394        C  0.86744598  0.21425595  0.23513231     1.04700
O395        O  0.94325551  0.15802364  0.20710655    -0.77900
C396        C  0.89101185  0.99819194  0.23784497     1.03000
Fe397      Fe  0.11073651  0.99409218  0.77743914     1.65800
Fe398      Fe  0.17365694  0.94280406  0.73516675     1.73200
Fe399      Fe  0.09859524  0.88056881  0.75385534     1.54400
O400        O  0.08514105  0.88756893  0.79886242    -0.81600
O401        O  0.15233782  0.92210536  0.69640504    -0.79900
O402        O  0.10971960  0.95592181  0.81493082    -0.84100
O403        O  0.05641374  0.98085337  0.77125143    -0.79000
O404        O  0.14230910  0.83666992  0.76595399    -0.80800
O405        O  0.16473263  0.01439968  0.72287714    -0.83500
C406        C  0.03863743  0.95582329  0.75325654     0.97300
C407        C  0.09386337  0.91654478  0.81958007     1.04700
O408        O  0.12753051  0.93853172  0.75528829    -1.12500
O409        O  0.19877037  0.96116491  0.77320515    -0.74900
O410        O  0.16229110  0.01888254  0.78808000    -0.78400
O411        O  0.05223872  0.91903090  0.74100751    -0.79100
C412        C  0.19300951  0.99864072  0.78782083     0.96200
O413        O  0.11034860  0.03369900  0.74028050    -0.77100
O414        O  0.18831583  0.87282830  0.74358994    -0.82300
C415        C  0.13111874  0.88809574  0.69016469     0.98800
C416        C  0.17495968  0.83718501  0.75683747     1.04700
O417        O  0.11042445  0.86813620  0.70902931    -0.77900
C418        C  0.13702091  0.04183120  0.72364926     1.03000
Fe419      Fe  0.17412700  0.99365663  0.47969387     1.65800
Fe420      Fe  0.10745598  0.94877682  0.51956357     1.73200
Fe421      Fe  0.18089093  0.88105271  0.50525301     1.54400
O422        O  0.19732767  0.88509609  0.46072200    -0.81600
O423        O  0.12680417  0.93193175  0.55946798    -0.79900
O424        O  0.17480884  0.95359037  0.44315904    -0.84100
O425        O  0.22729554  0.97677609  0.48707556    -0.79000
O426        O  0.13652991  0.83919640  0.49184970    -0.80800
O427        O  0.11742975  0.02158511  0.52928805    -0.83500
C428        C  0.24334455  0.95233914  0.50619872     0.97300
C429        C  0.18992427  0.91346628  0.43946350     1.04700
O430        O  0.15435690  0.94043881  0.50175066    -1.12500
O431        O  0.08573240  0.96411757  0.47975472    -0.74900
O432        O  0.12416835  0.02079997  0.46732043    -0.78400
O433        O  0.22783354  0.91772729  0.51925305    -0.79100
C434        C  0.09331201  0.00134064  0.46552117     0.96200
O435        O  0.17447240  0.03498952  0.51639890    -0.77100
O436        O  0.09108444  0.87803577  0.51332292    -0.82300
C437        C  0.14393510  0.89489488  0.56716649     0.98800
C438        C  0.10375754  0.84111931  0.50064288     1.04700
O439        O  0.16474067  0.87163111  0.54963837    -0.77900
C440        C  0.14586173  0.04777424  0.52951051     1.03000
Fe441      Fe  0.67074311  0.99324289  0.97468213     1.65800
Fe442      Fe  0.60496537  0.94628503  0.01545446     1.73200
Fe443      Fe  0.68114741  0.88192302  0.00163331     1.54400
O444        O  0.69705356  0.88491179  0.95716677    -0.81600
O445        O  0.62343718  0.92658417  0.05533570    -0.79900
O446        O  0.67256379  0.95159007  0.93866901    -0.84100
O447        O  0.72479155  0.97939969  0.98244201    -0.79000
O448        O  0.63783380  0.83767690  0.98898164    -0.80800
O449        O  0.61458350  0.01816681  0.02746150    -0.83500
C450        C  0.74178215  0.95610252  0.00165335     0.97300
C451        C  0.68879034  0.91195270  0.93556563     1.04700
O452        O  0.65236260  0.93985899  0.99755409    -1.12500
O453        O  0.58223797  0.96394362  0.97642022    -0.74900
O454        O  0.62030182  0.01956552  0.96184438    -0.78400
O455        O  0.72724109  0.92105545  0.01494651    -0.79100
C456        C  0.58911158  0.00077244  0.96170887     0.96200
O457        O  0.66976681  0.03516412  0.01084479    -0.77100
O458        O  0.58951211  0.87656341  0.00623754    -0.82300
C459        C  0.64463175  0.89366869  0.06348310     0.98800
C460        C  0.60401931  0.83996990  0.99465463     1.04700
O461        O  0.66699069  0.87304727  0.04613248    -0.77900
C462        C  0.64261755  0.04503980  0.02663273     1.03000
Fe463      Fe  0.61119804  0.99824641  0.27142639     1.65800
Fe464      Fe  0.67845479  0.94146274  0.23679248     1.73200
Fe465      Fe  0.59893115  0.88326812  0.24950408     1.54400
O466        O  0.58423800  0.89042376  0.29408793    -0.81600
O467        O  0.66130194  0.91976765  0.19667694    -0.79900
O468        O  0.60398023  0.96209057  0.30928158    -0.84100
O469        O  0.55739427  0.98823489  0.26068889    -0.79000
O470        O  0.64008286  0.83668280  0.26302481    -0.80800
O471        O  0.67434959  0.01316159  0.22295990    -0.83500
C472        C  0.53924216  0.95951255  0.24514230     0.97300
C473        C  0.59079195  0.92114411  0.31439434     1.04700
O474        O  0.62920049  0.94041081  0.25224982    -1.12500
O475        O  0.69860378  0.96090933  0.27655062    -0.74900
O476        O  0.66171875  0.02098547  0.28613081    -0.78400
O477        O  0.55270914  0.92069786  0.23561036    -0.79100
C478        C  0.69213089  0.00039709  0.28879083     0.96200
O479        O  0.61806214  0.03567315  0.23374292    -0.77100
O480        O  0.69071003  0.87168074  0.24793482    -0.82300
C481        C  0.63725069  0.89060497  0.18800288     0.98800
C482        C  0.67413274  0.83640717  0.25888026     1.04700
O483        O  0.61295653  0.87300191  0.20494701    -0.77900
C484        C  0.64807302  0.04268745  0.22095989     1.03000
Fe485      Fe  0.36911074  0.05216933  0.96835836     1.65800
Fe486      Fe  0.41646357  0.09855499  0.02576344     1.73200
Fe487      Fe  0.34337988  0.15925482  0.99858104     1.54400
O488        O  0.35038356  0.17053663  0.95331429    -0.81600
O489        O  0.38147577  0.10792936  0.06016478    -0.79900
O490        O  0.36644425  0.09962777  0.93486160    -0.84100
O491        O  0.31404269  0.04917950  0.97313020    -0.79000
O492        O  0.38499693  0.20921237  0.00350039    -0.80800
O493        O  0.41185131  0.02511098  0.03136004    -0.83500
C494        C  0.28983680  0.07537441  0.98427197     0.97300
C495        C  0.36142586  0.14405172  0.93233585     1.04700
O496        O  0.37613000  0.10337025  0.99769142    -1.12500
O497        O  0.45367982  0.08907154  0.99280251    -0.74900
O498        O  0.42349520  0.04743097  0.95912066    -0.78400
O499        O  0.29656848  0.11707229  0.99406780    -0.79100
C500        C  0.45245254  0.06553139  0.96905825     0.96200
O501        O  0.37196298  0.99863669  0.99867992    -0.77100
O502        O  0.42980630  0.17045846  0.02528583    -0.82300
C503        C  0.35201546  0.13055056  0.06446189     0.98800
C504        C  0.41642403  0.20834157  0.01479325     1.04700
O505        O  0.33561155  0.15337718  0.04416691    -0.77900
C506        C  0.39269297  0.99209835  0.02029741     1.03000
Fe507      Fe  0.41255127  0.05506684  0.78327842     1.65800
Fe508      Fe  0.36765553  0.09809395  0.72575723     1.73200
Fe509      Fe  0.43826413  0.15998607  0.75355920     1.54400
O510        O  0.43465803  0.16825579  0.80004681    -0.81600
O511        O  0.40365042  0.10062658  0.69219265    -0.79900
O512        O  0.40576561  0.10289195  0.81567586    -0.84100
O513        O  0.46831636  0.05957473  0.78558344    -0.79000
O514        O  0.39544096  0.20818148  0.75180106    -0.80800
O515        O  0.37115960  0.02334194  0.72443314    -0.83500
C516        C  0.49146178  0.07835850  0.76882181     0.97300
C517        C  0.41629570  0.14537395  0.81933753     1.04700
O518        O  0.40642021  0.10490760  0.75413531    -1.12500
O519        O  0.33044670  0.09660681  0.75885035    -0.74900
O520        O  0.35733920  0.04233754  0.78656441    -0.78400
O521        O  0.48417795  0.11557389  0.75402534    -0.79100
C522        C  0.32976031  0.06711130  0.77971595     0.96200
O523        O  0.41910348  0.00500412  0.75138818    -0.77100
O524        O  0.35736000  0.17093717  0.72189745    -0.82300
C525        C  0.42835223  0.13094868  0.68722481     0.98800
C526        C  0.36714136  0.20790899  0.73596369     1.04700
O527        O  0.44171011  0.15800592  0.70724397    -0.77900
C528        C  0.39534227  0.99385335  0.73267739     1.03000
Fe529      Fe  0.17301881  0.49834406  0.97300438     1.65800
Fe530      Fe  0.10597742  0.44769948  0.01090327     1.73200
Fe531      Fe  0.18216109  0.38330788  0.99687770     1.54400
O532        O  0.19620470  0.38762721  0.95217011    -0.81600
O533        O  0.12349152  0.42448654  0.05034874    -0.79900
O534        O  0.17730930  0.45889242  0.93578856    -0.84100
O535        O  0.22627497  0.48486737  0.98249877    -0.79000
O536        O  0.13877580  0.33860759  0.98517347    -0.80800
O537        O  0.11482957  0.51836335  0.02511279    -0.83500
C538        C  0.24330498  0.45724047  0.99932498     0.97300
C539        C  0.18991336  0.41721462  0.93139576     1.04700
O540        O  0.15397275  0.44255200  0.99389781    -1.12500
O541        O  0.08464430  0.46849949  0.97204436    -0.74900
O542        O  0.12310481  0.52473136  0.95897354    -0.78400
O543        O  0.22912472  0.41971353  0.00984143    -0.79100
C544        C  0.09193085  0.50598496  0.95806124     0.96200
O545        O  0.16988371  0.53942108  0.01007613    -0.77100
O546        O  0.09012437  0.37930600  0.99958189    -0.82300
C547        C  0.14624152  0.39336625  0.05856692     0.98800
C548        C  0.10474510  0.34182435  0.98938883     1.04700
O549        O  0.16945395  0.37424732  0.04137351    -0.77900
C550        C  0.14179824  0.54697357  0.02541050     1.03000
Fe551      Fe  0.10886500  0.49632417  0.27180780     1.65800
Fe552      Fe  0.17644785  0.44917501  0.23001354     1.73200
Fe553      Fe  0.10008814  0.38261260  0.24354098     1.54400
O554        O  0.08964270  0.37858645  0.28840509    -0.81600
O555        O  0.16107344  0.41692913  0.19208895    -0.79900
O556        O  0.09378236  0.45321600  0.30518358    -0.84100
O557        O  0.05879487  0.49221227  0.25317559    -0.79000
O558        O  0.14545248  0.33800954  0.25022001    -0.80800
O559        O  0.16406756  0.51574571  0.21146557    -0.83500
C560        C  0.03936392  0.46087613  0.24100258     0.97300
C561        C  0.08808493  0.40918757  0.30908354     1.04700
O562        O  0.12838274  0.44259417  0.24838336    -1.12500
O563        O  0.19929766  0.48131522  0.26538981    -0.74900
O564        O  0.15626200  0.51010954  0.29439521    -0.78400
O565        O  0.05053908  0.41849971  0.23599562    -0.79100
C566        C  0.18918566  0.50322489  0.28809087     0.96200
O567        O  0.12146355  0.54544963  0.24086438    -0.77100
O568        O  0.19434455  0.38453764  0.24658529    -0.82300
C569        C  0.13484250  0.39253854  0.18242418     0.98800
C570        C  0.17967618  0.34434217  0.25168370     1.04700
O571        O  0.10826655  0.37984234  0.19837400    -0.77900
C572        C  0.14242552  0.54900666  0.21914785     1.03000
Fe573      Fe  0.87277430  0.55394820  0.96970218     1.65800
Fe574      Fe  0.91766893  0.59511177  0.02907252     1.73200
Fe575      Fe  0.84469569  0.65695441  0.00252318     1.54400
O576        O  0.85023988  0.67066773  0.95725376    -0.81600
O577        O  0.88223328  0.60048499  0.06347909    -0.79900
O578        O  0.87530542  0.60468593  0.93840307    -0.84100
O579        O  0.81733533  0.55354328  0.96996040    -0.79000
O580        O  0.88621555  0.70659648  0.00784286    -0.80800
O581        O  0.91287179  0.52099148  0.03151561    -0.83500
C582        C  0.79230269  0.57551520  0.98310750     0.97300
C583        C  0.86615265  0.64804472  0.93659021     1.04700
O584        O  0.87810489  0.60217300  0.00063289    -1.12500
O585        O  0.95612757  0.59032503  0.99655048    -0.74900
O586        O  0.92748306  0.54588387  0.96363879    -0.78400
O587        O  0.79835687  0.61367611  0.99756120    -0.79100
C588        C  0.95591734  0.56551544  0.97334779     0.96200
O589        O  0.87075883  0.49956605  0.99920302    -0.77100
O590        O  0.92953423  0.66730276  0.03133519    -0.82300
C591        C  0.85421845  0.62573683  0.06819727     0.98800
C592        C  0.91679814  0.70544567  0.02056343     1.04700
O593        O  0.83844918  0.64992946  0.04815030    -0.77900
C594        C  0.89153734  0.49024357  0.02043161     1.03000
Fe595      Fe  0.91343036  0.55736404  0.78931685     1.65800
Fe596      Fe  0.86982305  0.60008040  0.73106176     1.73200
Fe597      Fe  0.94077428  0.66121601  0.75911225     1.54400
O598        O  0.93803003  0.66872564  0.80553127    -0.81600
O599        O  0.90592534  0.60458121  0.69738246    -0.79900
O600        O  0.90496159  0.60664740  0.82076897    -0.84100
O601        O  0.96897068  0.56360823  0.79301488    -0.79000
O602        O  0.89831614  0.71039406  0.75787719    -0.80800
O603        O  0.87489910  0.52522508  0.72919911    -0.83500
C604        C  0.99219095  0.57848490  0.77493491     0.97300
C605        C  0.91772133  0.64811337  0.82445698     1.04700
O606        O  0.90812501  0.60669933  0.75966848    -1.12500
O607        O  0.83180465  0.59611734  0.76358245    -0.74900
O608        O  0.85855523  0.54232243  0.79159612    -0.78400
O609        O  0.98563685  0.61481204  0.75908930    -0.79100
C610        C  0.83065883  0.56545977  0.78383118     0.96200
O611        O  0.92118729  0.50620500  0.75810288    -0.77100
O612        O  0.85884201  0.67333123  0.72884539    -0.82300
C613        C  0.93093629  0.63464361  0.69258958     0.98800
C614        C  0.86934813  0.71028989  0.74276031     1.04700
O615        O  0.94447555  0.66095241  0.71281891    -0.77900
C616        C  0.89832042  0.49533902  0.73855319     1.03000
Fe617      Fe  0.61044813  0.49696186  0.77329793     1.65800
Fe618      Fe  0.67626824  0.44810384  0.73444724     1.73200
Fe619      Fe  0.60089832  0.38434248  0.74756989     1.54400
O620        O  0.58316419  0.39006668  0.79164638    -0.81600
O621        O  0.65647332  0.43304571  0.69477392    -0.79900
O622        O  0.60768972  0.45717840  0.80981765    -0.84100
O623        O  0.55687815  0.48232392  0.76469663    -0.79000
O624        O  0.64346191  0.34084648  0.76184078    -0.80800
O625        O  0.66868788  0.52052837  0.72413530    -0.83500
C626        C  0.54050613  0.45782519  0.74557377     0.97300
C627        C  0.59121623  0.41783783  0.81314783     1.04700
O628        O  0.62900629  0.44240585  0.75167506    -1.12500
O629        O  0.69782357  0.46258563  0.77437673    -0.74900
O630        O  0.66142147  0.52209950  0.78628700    -0.78400
O631        O  0.55557800  0.42269939  0.73261493    -0.79100
C632        C  0.69184101  0.50107310  0.78797011     0.96200
O633        O  0.61189788  0.53733801  0.73646038    -0.77100
O634        O  0.69033104  0.37672454  0.74060814    -0.82300
C635        C  0.63966712  0.39621134  0.68662966     0.98800
C636        C  0.67628432  0.34088163  0.75323789     1.04700
O637        O  0.61825640  0.37323101  0.70365911    -0.77900
C638        C  0.64039520  0.54667781  0.72224706     1.03000
Fe639      Fe  0.66975975  0.48958447  0.47775126     1.65800
Fe640      Fe  0.60889335  0.43915203  0.52160044     1.73200
Fe641      Fe  0.68331674  0.37690434  0.50098754     1.54400
O642        O  0.69744505  0.38387596  0.45639404    -0.81600
O643        O  0.63293848  0.42071360  0.55953916    -0.79900
O644        O  0.66996486  0.45010639  0.44083593    -0.84100
O645        O  0.72432787  0.47685227  0.48371571    -0.79000
O646        O  0.63951321  0.33441500  0.48837172    -0.80800
O647        O  0.61688274  0.51221012  0.53237641    -0.83500
C648        C  0.74233309  0.45230081  0.50178664     0.97300
C649        C  0.68735933  0.41195463  0.43589841     1.04700
O650        O  0.65412696  0.43472851  0.50031997    -1.12500
O651        O  0.58162319  0.45538849  0.48428841    -0.74900
O652        O  0.61741683  0.51230982  0.46744686    -0.78400
O653        O  0.72915828  0.41552581  0.51414038    -0.79100
C654        C  0.58685201  0.49154345  0.46850959     0.96200
O655        O  0.67087215  0.53100286  0.51433810    -0.77100
O656        O  0.59494318  0.36802419  0.51419601    -0.82300
C657        C  0.65282983  0.38494122  0.56478057     0.98800
C658        C  0.60754963  0.33387203  0.49888100     1.04700
O659        O  0.67154454  0.36344700  0.54526235    -0.77900
C660        C  0.64390772  0.54069939  0.53029428     1.03000
Fe661      Fe  0.36783269  0.56125253  0.46164531     1.65800
Fe662      Fe  0.41362472  0.59879691  0.52055409     1.73200
Fe663      Fe  0.34381265  0.66450267  0.49497829     1.54400
O664        O  0.34608558  0.67592320  0.44896796    -0.81600
O665        O  0.37808604  0.60133074  0.55473913    -0.79900
O666        O  0.37559235  0.61241772  0.43121840    -0.84100
O667        O  0.31212090  0.56814450  0.45978625    -0.79000
O668        O  0.38759301  0.71093461  0.49718820    -0.80800
O669        O  0.40791760  0.52432863  0.52015513    -0.83500
C670        C  0.28955520  0.58558674  0.47768215     0.97300
C671        C  0.36480901  0.65511705  0.42904083     1.04700
O672        O  0.37479580  0.60845087  0.49257916    -1.12500
O673        O  0.45098156  0.59692185  0.48734417    -0.74900
O674        O  0.42249653  0.54647379  0.45775872    -0.78400
O675        O  0.29748983  0.62120299  0.49383512    -0.79100
C676        C  0.45098736  0.56800273  0.46602953     0.96200
O677        O  0.36100592  0.50745276  0.49145643    -0.77100
O678        O  0.42583388  0.67105170  0.52558914    -0.82300
C679        C  0.35403817  0.63231341  0.56051173     0.98800
C680        C  0.41640315  0.70886718  0.51236384     1.04700
O681        O  0.34104066  0.66046712  0.54109895    -0.77900
C682        C  0.38425084  0.49517889  0.51041767     1.03000
Fe683      Fe  0.40799317  0.55561589  0.28544110     1.65800
Fe684      Fe  0.36243386  0.59276898  0.22589899     1.73200
Fe685      Fe  0.43394251  0.65773813  0.25143388     1.54400
O686        O  0.43226880  0.67146964  0.29687249    -0.81600
O687        O  0.39844612  0.59489244  0.19155132    -0.79900
O688        O  0.40442686  0.60819974  0.31610975    -0.84100
O689        O  0.46396470  0.55780427  0.28431896    -0.79000
O690        O  0.39053097  0.70501270  0.24867387    -0.80800
O691        O  0.36661428  0.51843124  0.22549693    -0.83500
C692        C  0.48701114  0.57643654  0.26729213     0.97300
C693        C  0.41533665  0.65094578  0.31766545     1.04700
O694        O  0.40167142  0.60214640  0.25412950    -1.12500
O695        O  0.32432688  0.59047902  0.25888630    -0.74900
O696        O  0.35299116  0.54569616  0.29156425    -0.78400
O697        O  0.48038466  0.61441759  0.25307406    -0.79100
C698        C  0.32441690  0.56527914  0.28190564     0.96200
O699        O  0.41064033  0.49942812  0.25650131    -0.77100
O700        O  0.35072661  0.66507833  0.22156828    -0.82300
C701        C  0.42420700  0.62375817  0.18633710     0.98800
C702        C  0.36100850  0.70303035  0.23434958     1.04700
O703        O  0.43740129  0.65160901  0.20582016    -0.77900
C704        C  0.38837137  0.48825927  0.23649571     1.03000
C705        C  0.41478927  0.68000382  0.39717439    -0.12200
C706        C  0.37708209  0.67966464  0.40216904     0.04800
C707        C  0.35374907  0.68568065  0.37815665    -0.07500
C708        C  0.36797248  0.68403818  0.34969619    -0.08300
C709        C  0.40523632  0.67663645  0.34476771    -0.02800
C710        C  0.42899147  0.67827424  0.36875144     0.04000
N711        N  0.46705916  0.67161421  0.36479638     0.66500
H712        H  0.43321764  0.67549912  0.41544544     0.15400
H713        H  0.34929749  0.68296533  0.33138576     0.15100
N714        N  0.31538242  0.68717228  0.38208782     0.74200
O715        O  0.48755526  0.70759588  0.36347985    -0.39200
O716        O  0.48071990  0.63062965  0.36793417    -0.39200
O717        O  0.29940817  0.72702549  0.38221021    -0.39900
O718        O  0.29706674  0.64939413  0.37924136    -0.39900
C719        C  0.49038666  0.50548256  0.44604559    -0.12200
C720        C  0.48590724  0.55368088  0.45329130     0.04800
C721        C  0.51661582  0.58349746  0.45459787    -0.07500
C722        C  0.55115144  0.56288512  0.45534039    -0.08300
C723        C  0.55497420  0.51300844  0.45438992    -0.02800
C724        C  0.52464702  0.48473848  0.44683442     0.04000
N725        N  0.52753740  0.43431254  0.44258255     0.66500
H726        H  0.46700244  0.48236152  0.44338608     0.15400
H727        H  0.57440844  0.58551606  0.45973492     0.15100
N728        N  0.51295133  0.63422711  0.45634538     0.74200
O729        O  0.51918479  0.40671126  0.46323492    -0.39200
O730        O  0.52772668  0.41817166  0.41683566    -0.39200
O731        O  0.51578888  0.65508860  0.48066034    -0.39900
O732        O  0.51337457  0.65854998  0.43321911    -0.39900
C733        C  0.61907715  0.35886423  0.63988058    -0.12200
C734        C  0.64651501  0.38099691  0.65611412     0.04800
C735        C  0.67982339  0.39254299  0.64195972    -0.07500
C736        C  0.68335515  0.38598645  0.61190916    -0.08300
C737        C  0.65416222  0.37004094  0.59534223    -0.02800
C738        C  0.62239830  0.35415376  0.60952666     0.04000
N739        N  0.59226819  0.33650937  0.59312709     0.66500
H740        H  0.59377823  0.34903194  0.65029751     0.15400
H741        H  0.70763099  0.39879270  0.60108263     0.15100
N742        N  0.70928983  0.41512634  0.65701642     0.74200
O743        O  0.58558877  0.29232826  0.59327755    -0.39200
O744        O  0.56815352  0.36521073  0.58456898    -0.39200
O745        O  0.73860908  0.39252994  0.66016234    -0.39900
O746        O  0.70992191  0.46013779  0.65865318    -0.39900
C747        C  0.76664053  0.58699753  0.79369417    -0.12200
C748        C  0.79512968  0.55414670  0.79692113     0.04800
C749        C  0.78750192  0.50868388  0.80874850    -0.07500
C750        C  0.75150042  0.49401587  0.81124757    -0.08300
C751        C  0.72319131  0.52393150  0.80215285    -0.02800
C752        C  0.73065213  0.57247503  0.79692055     0.04000
N753        N  0.70227056  0.60579743  0.79105923     0.66500
H754        H  0.77211317  0.62313884  0.78644234     0.15400
H755        H  0.74596101  0.45697606  0.81655699     0.15100
N756        N  0.81552025  0.47482170  0.81470658     0.74200
O757        O  0.68750020  0.62769159  0.81201710    -0.39200
O758        O  0.69751188  0.62061663  0.76540342    -0.39200
O759        O  0.82520060  0.46783042  0.84076540    -0.39900
O760        O  0.82491937  0.44547994  0.79515268    -0.39900
C761        C  0.91517254  0.67504055  0.90443773    -0.12200
C762        C  0.87754755  0.67161788  0.90929111     0.04800
C763        C  0.85406006  0.67395651  0.88518251    -0.07500
C764        C  0.86852819  0.67402295  0.85687192    -0.08300
C765        C  0.90618148  0.67148389  0.85196577    -0.02800
C766        C  0.92965341  0.67488976  0.87607654     0.04000
N767        N  0.96794033  0.67042999  0.87238865     0.66500
H768        H  0.93366606  0.67174731  0.92276212     0.15400
H769        H  0.85006683  0.66950918  0.83861746     0.15100
N770        N  0.81584051  0.66843428  0.88882391     0.74200
O771        O  0.98741328  0.70745212  0.87259740    -0.39200
O772        O  0.98268639  0.62996246  0.87482879    -0.39200
O773        O  0.79511993  0.70329388  0.88375759    -0.39900
O774        O  0.80259655  0.62706501  0.89097251    -0.39900
C775        C  0.24687472  0.49583249  0.31353006    -0.12200
C776        C  0.21809967  0.52542909  0.30524853     0.04800
C777        C  0.22507138  0.57379549  0.29947543    -0.07500
C778        C  0.26066518  0.58808737  0.29349716    -0.08300
C779        C  0.28950416  0.55564519  0.29667136    -0.02800
C780        C  0.28267968  0.51116731  0.31020059     0.04000
N781        N  0.31141999  0.47927589  0.31781833     0.66500
H782        H  0.24169227  0.45884065  0.31904887     0.15400
H783        H  0.26554050  0.62360390  0.28504484     0.15100
N784        N  0.19573986  0.60671464  0.29593878     0.74200
O785        O  0.32651978  0.48345139  0.34241665    -0.39200
O786        O  0.31687496  0.44212825  0.30279082    -0.39200
O787        O  0.17628802  0.61755502  0.31760680    -0.39900
O788        O  0.18746676  0.62216162  0.27098830    -0.39900
C789        C  0.03218362  0.50083982  0.93565272    -0.12200
C790        C  0.06115771  0.53024517  0.94399755     0.04800
C791        C  0.05377992  0.57799722  0.95163918    -0.07500
C792        C  0.01835662  0.59072862  0.95944813    -0.08300
C793        C  0.99031636  0.55684964  0.95783693    -0.02800
C794        C  0.99680978  0.51303081  0.94333832     0.04000
N795        N  0.96919653  0.47745213  0.94062143     0.66500
H796        H  0.03756491  0.46489006  0.92805232     0.15400
H797        H  0.01322464  0.62596254  0.96838476     0.15100
N798        N  0.08223444  0.61245869  0.95389190     0.74200
O799        O  0.95233891  0.47245855  0.91683699    -0.39200
O800        O  0.96202061  0.45049320  0.96187084    -0.39200
O801        O  0.08890690  0.63915685  0.93243403    -0.39900
O802        O  0.09633573  0.62173279  0.97833895    -0.39900
C803        C  0.10940266  0.38007549  0.10282389    -0.12200
C804        C  0.14390884  0.37977574  0.08968523     0.04800
C805        C  0.17467039  0.37377763  0.10741699    -0.07500
C806        C  0.17072280  0.37431888  0.13784067    -0.08300
C807        C  0.13642440  0.38009158  0.15099672    -0.02800
C808        C  0.10541548  0.38012786  0.13316319     0.04000
N809        N  0.07008449  0.38612458  0.14527785     0.66500
H810        H  0.08527505  0.38358500  0.08941795     0.15400
H811        H  0.19492189  0.37274514  0.15129268     0.15100
N812        N  0.21016282  0.37114668  0.09508580     0.74200
O813        O  0.05803569  0.42770392  0.14952175    -0.39200
O814        O  0.04868171  0.35103852  0.14622258    -0.39200
O815        O  0.23005891  0.40778690  0.09491606    -0.39900
O816        O  0.22387259  0.33082175  0.08957817    -0.39900
C817        C  0.41111365  0.16831731  0.89981900    -0.12200
C818        C  0.37345136  0.16440160  0.90417039     0.04800
C819        C  0.35056561  0.16507300  0.87963047    -0.07500
C820        C  0.36569552  0.16684691  0.85153653    -0.08300
C821        C  0.40353584  0.16712027  0.84707622    -0.02800
C822        C  0.42627285  0.17009011  0.87168053     0.04000
N823        N  0.46475166  0.16808515  0.86855612     0.66500
H824        H  0.42922178  0.16471389  0.91835781     0.15400
H825        H  0.34777667  0.16167251  0.83298603     0.15100
N826        N  0.31253778  0.15677159  0.88260494     0.74200
O827        O  0.48263971  0.20645745  0.86791817    -0.39200
O828        O  0.48109520  0.12907199  0.87263825    -0.39200
O829        O  0.29063784  0.19075088  0.87863808    -0.39900
O830        O  0.30079827  0.11444339  0.88294513    -0.39900
C831        C  0.52936743  0.99517958  0.93834294    -0.12200
C832        C  0.55813156  0.02437819  0.94752774     0.04800
C833        C  0.55130243  0.07308420  0.95308005    -0.07500
C834        C  0.51554120  0.08824746  0.95702569    -0.08300
C835        C  0.48678087  0.05595145  0.95371469    -0.02800
C836        C  0.49360230  0.01086183  0.94097549     0.04000
N837        N  0.46486745  0.97810567  0.93478902     0.66500
H838        H  0.53436770  0.95813864  0.93271664     0.15400
H839        H  0.51050126  0.12400662  0.96522931     0.15100
N840        N  0.58009564  0.10563493  0.95920044     0.74200
O841        O  0.44714921  0.98172992  0.91132875    -0.39200
O842        O  0.45759739  0.94501196  0.95246512    -0.39200
O843        O  0.59198721  0.13185835  0.93903673    -0.39900
O844        O  0.58728291  0.11615616  0.98531346    -0.39900
C845        C  0.67352311  0.87356662  0.11124410    -0.12200
C846        C  0.64205510  0.88008039  0.09471442     0.04800
C847        C  0.60802640  0.88099711  0.10917793    -0.07500
C848        C  0.60647728  0.88068752  0.13981570    -0.08300
C849        C  0.63827101  0.87853375  0.15642738    -0.02800
C850        C  0.67189079  0.87265987  0.14183948     0.04000
N851        N  0.70488276  0.86763160  0.15792648     0.66500
H852        H  0.69968214  0.87219746  0.10053745     0.15400
H853        H  0.58052013  0.88461606  0.15060699     0.15100
N854        N  0.57488036  0.88390336  0.09292688     0.74200
O855        O  0.71544714  0.82656898  0.16535577    -0.39200
O856        O  0.72628857  0.90260250  0.16013578    -0.39200
O857        O  0.56797016  0.85348759  0.07329252    -0.39900
O858        O  0.55254227  0.91703996  0.09803180    -0.39900
C859        C  0.28940749  0.01193122  0.80630444    -0.12200
C860        C  0.29488486  0.05726627  0.79418940     0.04800
C861        C  0.26506803  0.08865823  0.79172743    -0.07500
C862        C  0.22994221  0.07065562  0.79476277    -0.08300
C863        C  0.22465884  0.02215467  0.80088981    -0.02800
C864        C  0.25438438  0.99440514  0.81007436     0.04000
N865        N  0.24945581  0.94664965  0.82024409     0.66500
H866        H  0.31210859  0.98813279  0.81016295     0.15400
H867        H  0.20713804  0.09313542  0.78885763     0.15100
N868        N  0.26995158  0.13776090  0.78430565     0.74200
O869        O  0.25832442  0.91190040  0.80414770    -0.39200
O870        O  0.24347174  0.93964752  0.84700006    -0.39200
O871        O  0.26490296  0.15123247  0.75839657    -0.39900
O872        O  0.27264532  0.16854808  0.80436542    -0.39900
C873        C  0.10104139  0.88490992  0.64207055    -0.12200
C874        C  0.13105086  0.87337832  0.65917520     0.04800
C875        C  0.16364666  0.85931664  0.64516577    -0.07500
C876        C  0.16683788  0.86231487  0.61466355    -0.08300
C877        C  0.13807892  0.87959934  0.59785250    -0.02800
C878        C  0.10413423  0.88779190  0.61166867     0.04000
N879        N  0.07282857  0.90120130  0.59518990     0.66500
H880        H  0.07579592  0.89531416  0.65244125     0.15400
H881        H  0.19269113  0.85452123  0.60444439     0.15100
N882        N  0.19421102  0.84341777  0.66166867     0.74200
O883        O  0.05250998  0.86915588  0.58477311    -0.39200
O884        O  0.06179643  0.94385584  0.59599390    -0.39200
O885        O  0.20436191  0.80055973  0.65912588    -0.39900
O886        O  0.21580462  0.87374913  0.67234461    -0.39900
C887        C  0.78770393  0.02138191  0.30874891    -0.12200
C888        C  0.79163629  0.06614092  0.29553049     0.04800
C889        C  0.76063727  0.09521670  0.29205177    -0.07500
C890        C  0.72628162  0.07491493  0.29547323    -0.08300
C891        C  0.72286563  0.02612793  0.30186810    -0.02800
C892        C  0.75359003  0.00082449  0.31157463     0.04000
N893        N  0.75119134  0.95205017  0.32037836     0.66500
H894        H  0.81123089  0.99949381  0.31352909     0.15400
H895        H  0.70269549  0.09568320  0.28922423     0.15100
N896        N  0.76336898  0.14427140  0.28377299     0.74200
O897        O  0.76438881  0.91994657  0.30414900    -0.39200
O898        O  0.74442066  0.94263670  0.34671927    -0.39200
O899        O  0.76354562  0.15507008  0.25710724    -0.39900
O900        O  0.75626402  0.17627354  0.30237028    -0.39900
C901        C  0.03508831  0.99614658  0.44038809    -0.12200
C902        C  0.06342344  0.02529913  0.45036091     0.04800
C903        C  0.05611535  0.07352628  0.45720087    -0.07500
C904        C  0.02023798  0.08631939  0.46329617    -0.08300
C905        C  0.99198136  0.05332965  0.45932861    -0.02800
C906        C  0.99919112  0.01037003  0.44413862     0.04000
N907        N  0.97082493  0.97950896  0.43421833     0.66500
H908        H  0.04067800  0.95998873  0.43309959     0.15400
H909        H  0.01441641  0.12152082  0.47203210     0.15100
N910        N  0.08470398  0.10824156  0.46013903     0.74200
O911        O  0.96293757  0.94257482  0.44855463    -0.39200
O912        O  0.95917039  0.98377744  0.40845922    -0.39200
O913        O  0.11207252  0.10587327  0.44367757    -0.39900
O914        O  0.07991546  0.14563265  0.47514404    -0.39900
C915        C  0.86037040  0.18618035  0.38492355    -0.12200
C916        C  0.88544016  0.17315399  0.40641308     0.04800
C917        C  0.92267359  0.17140478  0.39869787    -0.07500
C918        C  0.93337088  0.17607212  0.36945670    -0.08300
C919        C  0.90767737  0.18143131  0.34739775    -0.02800
C920        C  0.87118501  0.19002528  0.35552703     0.04000
N921        N  0.84390499  0.19536499  0.33371649     0.66500
H922        H  0.83174077  0.18745595  0.39022218     0.15400
H923        H  0.96138761  0.16906362  0.36364829     0.15100
N924        N  0.94953295  0.15820398  0.41962440     0.74200
O925        O  0.82838574  0.15865493  0.32381585    -0.39200
O926        O  0.82962612  0.23575822  0.32977345    -0.39200
O927        O  0.96917449  0.12220901  0.41466606    -0.39900
O928        O  0.95883296  0.18764613  0.43914528    -0.39900
C929        C  0.94126438  0.68738565  0.61715380    -0.12200
C930        C  0.93881965  0.64597006  0.59973927     0.04800
C931        C  0.94189452  0.60106441  0.61341054    -0.07500
C932        C  0.94360029  0.59839860  0.64399561    -0.08300
C933        C  0.94220564  0.63973146  0.66155191    -0.02800
C934        C  0.94309749  0.68467734  0.64775766     0.04000
N935        N  0.94145769  0.72782057  0.66443991     0.66500
H936        H  0.93924979  0.72226914  0.60703046     0.15400
H937        H  0.94285067  0.56348328  0.65419149     0.15100
N938        N  0.93856411  0.55778752  0.59699350     0.74200
O939        O  0.97004409  0.75154655  0.66873749    -0.39200
O940        O  0.91109898  0.74674098  0.66969204    -0.39200
O941        O  0.96535412  0.52997537  0.59490872    -0.39900
O942        O  0.90755060  0.54325604  0.58949443    -0.39900
C943        C  0.04368366  0.74387527  0.46664732    -0.12200
C944        C  0.02299361  0.72922301  0.49084180     0.04800
C945        C  0.03177145  0.74824957  0.51854286    -0.07500
C946        C  0.05893555  0.78328539  0.52130082    -0.08300
C947        C  0.07889317  0.79915498  0.49701830    -0.02800
C948        C  0.07197208  0.77757846  0.46965183     0.04000
N949        N  0.09171923  0.79187339  0.44435446     0.66500
H950        H  0.03718265  0.73007860  0.44514508     0.15400
H951        H  0.06387966  0.79912105  0.54254176     0.15100
N952        N  0.01112720  0.73542201  0.54372270     0.74200
O953        O  0.11965892  0.76890721  0.43687911    -0.39200
O954        O  0.07800587  0.82170118  0.42696935    -0.39200
O955        O  0.02061182  0.70014760  0.55899640    -0.39900
O956        O  0.98190725  0.75695120  0.54939952    -0.39900
C957        C  0.92395437  0.86663476  0.53037195    -0.12200
C958        C  0.89173752  0.84016768  0.52852267     0.04800
C959        C  0.85824825  0.86458894  0.52890395    -0.07500
C960        C  0.85772848  0.91449156  0.52709052    -0.08300
C961        C  0.89008542  0.94079690  0.52627277    -0.02800
C962        C  0.92337852  0.91661131  0.52999501     0.04000
N963        N  0.95699990  0.94192617  0.53112850     0.66500
H964        H  0.94989862  0.84835168  0.53067015     0.15400
H965        H  0.83187154  0.93265856  0.52496527     0.15100
N966        N  0.82461651  0.83927340  0.52864528     0.74200
O967        O  0.97616388  0.94538752  0.50845921    -0.39200
O968        O  0.97069621  0.95216424  0.55560210    -0.39200
O969        O  0.80756386  0.83361764  0.55223379    -0.39900
O970        O  0.80872271  0.83135028  0.50473985    -0.39900
C971        C  0.83452800  0.50795431  0.49164837    -0.12200
C972        C  0.83810567  0.53343424  0.51798430     0.04800
C973        C  0.81412237  0.52243114  0.54112814    -0.07500
C974        C  0.78505663  0.49080127  0.53646008    -0.08300
C975        C  0.77900606  0.47027684  0.50893200    -0.02800
C976        C  0.80488267  0.47754034  0.48671458     0.04000
N977        N  0.80039989  0.45615399  0.45852805     0.66500
H978        H  0.85323647  0.51455299  0.47387689     0.15400
H979        H  0.76548526  0.48534599  0.55380156     0.15100
N980        N  0.81868729  0.54319461  0.56942963     0.74200
O981        O  0.77961040  0.47525967  0.44005321    -0.39200
O982        O  0.82183899  0.42360262  0.45042224    -0.39200
O983        O  0.80341208  0.58236065  0.57535191    -0.39900
O984        O  0.83027457  0.51750268  0.58999655    -0.39900
C985        C  0.84285772  0.59888470  0.14894357    -0.12200
C986        C  0.83977716  0.64525044  0.16037323     0.04800
C987        C  0.83416436  0.68353879  0.14079486    -0.07500
C988        C  0.83469042  0.67539481  0.11051568    -0.08300
C989        C  0.84208010  0.62986628  0.09909865    -0.02800
C990        C  0.84466039  0.59096582  0.11868156     0.04000
N991        N  0.85106228  0.54349768  0.10829794     0.66500
H992        H  0.84730002  0.56902563  0.16355468     0.15400
H993        H  0.83260914  0.70572796  0.09593354     0.15100
N994        N  0.83001875  0.73139020  0.15123222     0.74200
O995        O  0.88311136  0.52782835  0.10717388    -0.39200
O996        O  0.82501551  0.51436524  0.10726574    -0.39200
O997        O  0.85730323  0.75851467  0.15218450    -0.39900
O998        O  0.79873263  0.74949682  0.15228500    -0.39900
C999        C  0.74304186  0.75722087  0.29637981    -0.12200
C1000       C  0.75441885  0.72760830  0.27319785     0.04800
C1001       C  0.73393974  0.72843190  0.24703612    -0.07500
C1002       C  0.70560795  0.76170304  0.24360500    -0.08300
C1003       C  0.69614129  0.79348068  0.26611507    -0.02800
C1004       C  0.71393927  0.78932761  0.29323900     0.04000
N1005       N  0.70351895  0.81850742  0.31752184     0.66500
H1006       H  0.75758096  0.75648091  0.31696543     0.15400
H1007       H  0.69231342  0.76462323  0.22254746     0.15100
N1008       N  0.74350040  0.69886827  0.22277915     0.74200
O1009       O  0.67269805  0.81275979  0.32889777    -0.39200
O1010       O  0.72720891  0.84221396  0.33114995    -0.39200
O1011       O  0.72406086  0.66324453  0.21643621    -0.39900
O1012       O  0.76709092  0.71301551  0.20488931    -0.39900
C1013       C  0.85253941  0.87356841  0.23175922    -0.12200
C1014       C  0.88435990  0.84595351  0.23132493     0.04800
C1015       C  0.91791838  0.86920149  0.22701167    -0.07500
C1016       C  0.91956509  0.91926485  0.22728685    -0.08300
C1017       C  0.88794669  0.94691065  0.22995876    -0.02800
C1018       C  0.85406357  0.92357861  0.23012987     0.04000
N1019       N  0.82108353  0.95023801  0.23112270     0.66500
H1020       H  0.82647348  0.85635730  0.23435873     0.15400
H1021       H  0.94577140  0.93660165  0.22649650     0.15100
N1022       N  0.95083867  0.84262867  0.22422406     0.74200
O1023       O  0.80645817  0.96417452  0.20775118    -0.39200
O1024       O  0.80740655  0.96173075  0.25534678    -0.39200
O1025       O  0.96142855  0.82916128  0.19934421    -0.39900
O1026       O  0.96885178  0.83142786  0.24658068    -0.39900
C1027       C  0.85478566  0.60591172  0.37208905    -0.12200
C1028       C  0.88051497  0.61151096  0.35005482     0.04800
C1029       C  0.91775113  0.60814393  0.35765718    -0.07500
C1030       C  0.92834710  0.60579169  0.38711105    -0.08300
C1031       C  0.90253111  0.60817618  0.40933352    -0.02800
C1032       C  0.86540385  0.60479429  0.40154662     0.04000
N1033       N  0.83786851  0.60772990  0.42329599     0.66500
H1034       H  0.82618709  0.60858552  0.36680563     0.15400
H1035       H  0.95687014  0.60905901  0.39254048     0.15100
N1036       N  0.94533056  0.61486191  0.33627878     0.74200
O1037       O  0.81953627  0.64556693  0.42528468    -0.39200
O1038       O  0.82526845  0.56971562  0.43387923    -0.39200
O1039       O  0.95630907  0.65672057  0.33168221    -0.39900
O1040       O  0.96590208  0.58037768  0.32992870    -0.39900
C1041       C  0.97591109  0.47326940  0.25664766    -0.12200
C1042       C  0.00183514  0.47613927  0.23429821     0.04800
C1043       C  0.99462441  0.50617919  0.21034450    -0.07500
C1044       C  0.96461791  0.53693388  0.21096784    -0.08300
C1045       C  0.94082013  0.53815397  0.23490665    -0.02800
C1046       C  0.94499771  0.50284785  0.25675897     0.04000
N1047       N  0.91908874  0.49769050  0.27973600     0.66500
H1048       H  0.98079002  0.44988030  0.27507361     0.15400
H1049       H  0.96113169  0.56200481  0.19318093     0.15100
N1050       N  0.01815665  0.50737541  0.18561674     0.74200
O1051       O  0.88896919  0.47829571  0.27422905    -0.39200
O1052       O  0.92902946  0.50214445  0.30595358    -0.39200
O1053       O  0.00536990  0.49801346  0.16068577    -0.39900
O1054       O  0.04848615  0.52788172  0.18756074    -0.39900
C1055       C  0.20271558  0.92210776  0.35751190    -0.12200
C1056       C  0.19588632  0.87498258  0.34895138     0.04800
C1057       C  0.19321532  0.83926076  0.37092595    -0.07500
C1058       C  0.19421080  0.85204231  0.40045027    -0.08300
C1059       C  0.19763822  0.89978030  0.40886048    -0.02800
C1060       C  0.20358392  0.93482075  0.38705552     0.04000
N1061       N  0.20951906  0.98386096  0.39445095     0.66500
H1062       H  0.20562355  0.94987142  0.34122257     0.15400
H1063       H  0.19002710  0.82466964  0.41681638     0.15100
N1064       N  0.18808754  0.78993592  0.36383278     0.74200
O1065       O  0.24155932  0.99925048  0.39641263    -0.39200
O1066       O  0.18381012  0.01330457  0.39192856    -0.39200
O1067       O  0.21520441  0.76252819  0.36270122    -0.39900
O1068       O  0.15667869  0.77218904  0.36500251    -0.39900
C1069       C  0.06417152  0.99389693  0.29214332    -0.12200
C1070       C  0.08340424  0.99110257  0.26588530     0.04800
C1071       C  0.07569084  0.02484591  0.24383020    -0.07500
C1072       C  0.04683247  0.05748084  0.24733186    -0.08300
C1073       C  0.02567189  0.05801981  0.27286048    -0.02800
C1074       C  0.03609710  0.02730678  0.29603431     0.04000
N1075       N  0.01790956  0.02876047  0.32355485     0.66500
H1076       H  0.07003023  0.96864953  0.30943458     0.15400
H1077       H  0.03993798  0.08097750  0.22939347     0.15100
N1078       N  0.09647422  0.02571949  0.21750520     0.74200
O1079       O  0.99554359  0.99636016  0.32993575    -0.39200
O1080       O  0.02973391  0.05591614  0.34343183    -0.39200
O1081       O  0.08080930  0.02091719  0.19318935    -0.39900
O1082       O  0.12863201  0.04100437  0.21823599    -0.39900
C1083       C  0.03135748  0.78911647  0.31426877    -0.12200
C1084       C  0.05947416  0.75967593  0.30416009     0.04800
C1085       C  0.05177195  0.71155388  0.29728811    -0.07500
C1086       C  0.01569218  0.69913514  0.29154139    -0.08300
C1087       C  0.98763626  0.73244883  0.29563550    -0.02800
C1088       C  0.99530388  0.77544433  0.31062265     0.04000
N1089       N  0.96726579  0.80722586  0.32004919     0.66500
H1090       H  0.03723866  0.82514342  0.32166164     0.15400
H1091       H  0.00954568  0.66396904  0.28288838     0.15100
N1092       N  0.08008461  0.67647158  0.29418182     0.74200
O1093       O  0.95268363  0.80067062  0.34461210    -0.39200
O1094       O  0.96299267  0.84676689  0.30738093    -0.39200
O1095       O  0.10749576  0.67826288  0.31065704    -0.39900
O1096       O  0.07502010  0.63937318  0.27895874    -0.39900
C1097       C  0.28262631  0.78667822  0.21535205    -0.12200
C1098       C  0.27783374  0.81053145  0.24203617     0.04800
C1099       C  0.30409432  0.80425668  0.26416002    -0.07500
C1100       C  0.33307807  0.77247471  0.26001048    -0.08300
C1101       C  0.33597475  0.74499054  0.23442025    -0.02800
C1102       C  0.31110613  0.75379576  0.21144590     0.04000
N1103       N  0.31322775  0.72791820  0.18456116     0.66500
H1104       H  0.26229672  0.79023122  0.19836766     0.15400
H1105       H  0.35160019  0.76629063  0.27801598     0.15100
N1106       N  0.29982806  0.82671242  0.29201205     0.74200
O1107       O  0.29222152  0.69305218  0.18018551    -0.39200
O1108       O  0.33004737  0.74589286  0.16330257    -0.39200
O1109       O  0.28672236  0.80327846  0.31298109    -0.39900
O1110       O  0.31555245  0.86588757  0.29704695    -0.39900
C1111       C  0.17275423  0.67228771  0.20251748    -0.12200
C1112       C  0.13970013  0.69645456  0.20718030     0.04800
C1113       C  0.10719491  0.67041552  0.20400781    -0.07500
C1114       C  0.10873629  0.62057170  0.20323947    -0.08300
C1115       C  0.14193879  0.59601668  0.20446491    -0.02800
C1116       C  0.17415810  0.62234732  0.20088031     0.04000
N1117       N  0.20862444  0.59906482  0.19959505     0.66500
H1118       H  0.19831518  0.69198266  0.20319544     0.15400
H1119       H  0.08314725  0.60061996  0.20514045     0.15100
N1120       N  0.07265126  0.69350981  0.20457717     0.74200
O1121       O  0.22172279  0.58798415  0.17506507    -0.39200
O1122       O  0.22882521  0.59849382  0.22182800    -0.39200
O1123       O  0.05667359  0.70220413  0.18082515    -0.39900
O1124       O  0.05514911  0.69610167  0.22815913    -0.39900
C1125       C  0.08127749  0.92718759  0.90196945    -0.12200
C1126       C  0.08364216  0.87931967  0.91050297     0.04800
C1127       C  0.08454461  0.84349501  0.88844093    -0.07500
C1128       C  0.08595965  0.85625246  0.85893726    -0.08300
C1129       C  0.08636346  0.90421133  0.85053779    -0.02800
C1130       C  0.08250208  0.93991296  0.87242241     0.04000
N1131       N  0.07994690  0.98940055  0.86511277     0.66500
H1132       H  0.07995161  0.95522696  0.91833889     0.15400
H1133       H  0.08826521  0.82830064  0.84257470     0.15100
N1134       N  0.08464118  0.79381580  0.89553029     0.74200
O1135       O  0.04908236  0.00812425  0.86202581    -0.39200
O1136       O  0.10724257  0.01600940  0.86845935    -0.39200
O1137       O  0.05494000  0.77175547  0.89751312    -0.39900
O1138       O  0.11384723  0.77045436  0.89405434    -0.39900
C1139       C  0.97216764  0.81223522  0.99603726    -0.12200
C1140       C  0.99792180  0.81548436  0.01849577     0.04800
C1141       C  0.99229855  0.78900236  0.04419389    -0.07500
C1142       C  0.96391119  0.75556657  0.04547680    -0.08300
C1143       C  0.93999839  0.74908689  0.02180468    -0.02800
C1144       C  0.94297523  0.78020028  0.99769844     0.04000
N1145       N  0.91920534  0.77593842  0.97320847     0.66500
H1146       H  0.97637227  0.83199664  0.97598719     0.15400
H1147       H  0.96175328  0.73274637  0.06448087     0.15100
N1148       N  0.01712873  0.79254815  0.06806275     0.74200
O1149       O  0.88940518  0.79805236  0.97331155    -0.39200
O1150       O  0.93089342  0.75834258  0.94964730    -0.39200
O1151       O  0.01011637  0.82035458  0.08904540    -0.39900
O1152       O  0.04239108  0.76246918  0.07057332    -0.39900
C1153       C  0.17165831  0.61951549  0.04640106    -0.12200
C1154       C  0.13965107  0.59319734  0.04154782     0.04800
C1155       C  0.10612082  0.61594189  0.04693139    -0.07500
C1156       C  0.10505087  0.66572895  0.04981791    -0.08300
C1157       C  0.13702267  0.69314710  0.04887561    -0.02800
C1158       C  0.17047514  0.66906256  0.05115185     0.04000
N1159       N  0.20343487  0.69459958  0.05632466     0.66500
H1160       H  0.19786584  0.60213134  0.04462799     0.15400
H1161       H  0.07880830  0.68321665  0.05008359     0.15100
N1162       N  0.07279574  0.58986696  0.04702260     0.74200
O1163       O  0.21096888  0.70817216  0.08191294    -0.39200
O1164       O  0.22737136  0.69684652  0.03673223    -0.39200
O1165       O  0.06146711  0.57239971  0.07066195    -0.39900
O1166       O  0.05153122  0.59261646  0.02551737    -0.39900
C1167       C  0.09950237  0.91508757  0.11741511    -0.12200
C1168       C  0.13044118  0.91747782  0.10008947     0.04800
C1169       C  0.16464061  0.92451534  0.11349196    -0.07500
C1170       C  0.16781522  0.92321805  0.14394921    -0.08300
C1171       C  0.13745317  0.91378716  0.16118829    -0.02800
C1172       C  0.10260261  0.91266073  0.14779535     0.04000
N1173       N  0.07029232  0.90481043  0.16439599     0.66500
H1174       H  0.07317422  0.90979308  0.10732549     0.15400
H1175       H  0.19452128  0.92489338  0.15382998     0.15100
N1176       N  0.19680039  0.92896795  0.09633147     0.74200
O1177       O  0.04845534  0.93898356  0.16804835    -0.39200
O1178       O  0.05889574  0.86265662  0.16760232    -0.39200
O1179       O  0.21077392  0.96967650  0.09291572    -0.39900
O1180       O  0.21530169  0.89223249  0.09053059    -0.39900
C1181       C  0.23863676  0.02746414  0.96382834    -0.12200
C1182       C  0.25323623  0.05366798  0.98733682     0.04800
C1183       C  0.23686540  0.04940805  0.01502451    -0.07500
C1184       C  0.20847896  0.01658164  0.01921112    -0.08300
C1185       C  0.19518203  0.98862470  0.99599996    -0.02800
C1186       C  0.20958800  0.99564939  0.96787385     0.04000
N1187       N  0.19734814  0.96740397  0.94377885     0.66500
H1188       H  0.25120045  0.02971244  0.94250435     0.15400
H1189       H  0.19771132  0.01149749  0.04095304     0.15100
N1190       N  0.25136254  0.07428545  0.03970531     0.74200
O1191       O  0.17428818  0.98430199  0.92627921    -0.39200
O1192       O  0.21352501  0.92902776  0.93747569    -0.39200
O1193       O  0.24311208  0.11745850  0.04407256    -0.39900
O1194       O  0.27498893  0.05456277  0.05553520    -0.39900
C1195       C  0.34158639  0.60682081  0.64138428    -0.12200
C1196       C  0.34531426  0.65289737  0.65312155     0.04800
C1197       C  0.34523354  0.69228879  0.63375678    -0.07500
C1198       C  0.34378441  0.68468478  0.60348182    -0.08300
C1199       C  0.34407410  0.63839308  0.59173547    -0.02800
C1200       C  0.34184746  0.59912112  0.61107367     0.04000
N1201       N  0.34188307  0.55102720  0.60045105     0.66500
H1202       H  0.34191093  0.57610624  0.65576050     0.15400
H1203       H  0.34582801  0.71524857  0.58907540     0.15100
N1204       N  0.34885369  0.74018537  0.64428495     0.74200
O1205       O  0.37173549  0.52987618  0.59666426    -0.39200
O1206       O  0.31330559  0.52654012  0.60248452    -0.39200
O1207       O  0.37984411  0.75924530  0.64484127    -0.39900
O1208       O  0.32116337  0.76657086  0.64531544    -0.39900
C1209       C  0.44727120  0.50917864  0.75686660    -0.12200
C1210       C  0.44320083  0.53597239  0.73122453     0.04800
C1211       C  0.46701908  0.52664756  0.70766391    -0.07500
C1212       C  0.49684350  0.49593452  0.71147949    -0.08300
C1213       C  0.50329331  0.47388278  0.73842482    -0.02800
C1214       C  0.47715484  0.47883357  0.76077489     0.04000
N1215       N  0.48170088  0.45537138  0.78823642     0.66500
H1216       H  0.42887929  0.51480010  0.77501524     0.15400
H1217       H  0.51640653  0.49203881  0.69396523     0.15100
N1218       N  0.46147782  0.54854803  0.67988599     0.74200
O1219       O  0.50225497  0.47334284  0.80736856    -0.39200
O1220       O  0.46002917  0.42259163  0.79538134    -0.39200
O1221       O  0.48196569  0.58197619  0.67173649    -0.39900
O1222       O  0.44031074  0.52926011  0.66169754    -0.39900
C1223       C  0.24062577  0.74761953  0.79022477    -0.12200
C1224       C  0.25886240  0.73091413  0.76515466     0.04800
C1225       C  0.24515526  0.74420189  0.73749335    -0.07500
C1226       C  0.21614310  0.77619820  0.73567246    -0.08300
C1227       C  0.19922477  0.79508470  0.76043056    -0.02800
C1228       C  0.21053313  0.77858017  0.78807064     0.04000
N1229       N  0.19297144  0.79515971  0.81396940     0.66500
H1230       H  0.25062493  0.73763303  0.81189003     0.15400
H1231       H  0.20750596  0.78899144  0.71363740     0.15100
N1232       N  0.26317388  0.72977860  0.71134211     0.74200
O1233       O  0.16523645  0.77366700  0.82323043    -0.39200
O1234       O  0.20173091  0.83487617  0.82498234    -0.39200
O1235       O  0.24870451  0.69901508  0.69485720    -0.39900
O1236       O  0.28981075  0.75368056  0.70223879    -0.39900
C1237       C  0.36167007  0.86853400  0.72180063    -0.12200
C1238       C  0.39428992  0.84309756  0.72481080     0.04800
C1239       C  0.42745889  0.86803769  0.72352259    -0.07500
C1240       C  0.42727468  0.91794177  0.72241616    -0.08300
C1241       C  0.39454905  0.94359792  0.72279042    -0.02800
C1242       C  0.36155928  0.91848008  0.72038348     0.04000
N1243       N  0.32763104  0.94312026  0.71983061     0.66500
H1244       H  0.33601536  0.84967854  0.72227154     0.15400
H1245       H  0.45286085  0.93681528  0.72405065     0.15100
N1246       N  0.46128473  0.84403453  0.72759784     0.74200
O1247       O  0.31605232  0.96061600  0.69625174    -0.39200
O1248       O  0.30976355  0.94876288  0.74306083    -0.39200
O1249       O  0.48391730  0.84261427  0.70698617    -0.39900
O1250       O  0.47142279  0.83351966  0.75308169    -0.39900
C1251       C  0.44013603  0.59636018  0.10598978    -0.12200
C1252       C  0.44134934  0.64283722  0.09464838     0.04800
C1253       C  0.44449753  0.68174370  0.11434985    -0.07500
C1254       C  0.44273875  0.67391626  0.14448423    -0.08300
C1255       C  0.43683131  0.62808231  0.15566934    -0.02800
C1256       C  0.43754346  0.58870545  0.13622967     0.04000
N1257       N  0.43432626  0.54091198  0.14676488     0.66500
H1258       H  0.43785727  0.56603060  0.09129416     0.15400
H1259       H  0.44269563  0.70457914  0.15904283     0.15100
N1260       N  0.44683883  0.72987930  0.10416650     0.74200
O1261       O  0.40408549  0.51996574  0.14552383    -0.39200
O1262       O  0.46263425  0.51682378  0.15146612    -0.39200
O1263       O  0.41817230  0.75408092  0.10146127    -0.39900
O1264       O  0.47680200  0.75140335  0.10588110    -0.39900
C1265       C  0.33586363  0.50970229  0.98984481    -0.12200
C1266       C  0.33858018  0.53731422  0.01545744     0.04800
C1267       C  0.31395073  0.52815703  0.03844994    -0.07500
C1268       C  0.28510313  0.49609056  0.03420135    -0.08300
C1269       C  0.28022488  0.47279798  0.00735574    -0.02800
C1270       C  0.30685290  0.47810446  0.98554886     0.04000
N1271       N  0.30306590  0.45466884  0.95794234     0.66500
H1272       H  0.35458648  0.51551884  0.97196251     0.15400
H1273       H  0.26470775  0.49255472  0.05111021     0.15100
N1274       N  0.31690925  0.55257382  0.06578109     0.74200
O1275       O  0.28776109  0.47606380  0.93710078    -0.39200
O1276       O  0.32085388  0.41704705  0.95289065    -0.39200
O1277       O  0.29489261  0.58560636  0.07191681    -0.39900
O1278       O  0.33645908  0.53511536  0.08568093    -0.39900
C1279       C  0.24764840  0.79959565  0.95203782    -0.12200
C1280       C  0.21915487  0.76810076  0.95828808     0.04800
C1281       C  0.22681913  0.71918940  0.96149692    -0.07500
C1282       C  0.26266055  0.70501640  0.96622189    -0.08300
C1283       C  0.29083271  0.73880081  0.96585153    -0.02800
C1284       C  0.28346787  0.78569477  0.95633244     0.04000
N1285       N  0.31106490  0.82149538  0.95539839     0.66500
H1286       H  0.24200985  0.83717189  0.94839081     0.15400
H1287       H  0.26828585  0.66798986  0.97152554     0.15100
N1288       N  0.19846119  0.68443935  0.96220866     0.74200
O1289       O  0.32220607  0.83642091  0.93105823    -0.39200
O1290       O  0.31903927  0.84429115  0.97833321    -0.39200
O1291       O  0.18598222  0.66826347  0.93851249    -0.39900
O1292       O  0.19066192  0.66380088  0.98578102    -0.39900
C1293       C  0.42129818  0.60445728  0.88335399    -0.12200
C1294       C  0.39560552  0.61549027  0.90480309     0.04800
C1295       C  0.35862339  0.61827202  0.89636636    -0.07500
C1296       C  0.34881354  0.61656982  0.86672832    -0.08300
C1297       C  0.37516659  0.61215398  0.84501117    -0.02800
C1298       C  0.41139433  0.60300205  0.85364749     0.04000
N1299       N  0.43928555  0.59855627  0.83226723     0.66500
H1300       H  0.44975487  0.60252100  0.88919875     0.15400
H1301       H  0.32099110  0.62416625  0.86061593     0.15100
N1302       N  0.33111890  0.62856829  0.91739748     0.74200
O1303       O  0.45727258  0.63499371  0.82521719    -0.39200
O1304       O  0.45127789  0.55765925  0.82586409    -0.39200
O1305       O  0.31503158  0.66829969  0.91653440    -0.39900
O1306       O  0.31756237  0.59490833  0.93200449    -0.39900
C1307       C  0.53409989  0.75909420  0.95844099    -0.12200
C1308       C  0.52246610  0.73102750  0.98211483     0.04800
C1309       C  0.54152320  0.73528733  0.00885219    -0.07500
C1310       C  0.56984690  0.76867805  0.01177409    -0.08300
C1311       C  0.57987797  0.79850905  0.98859239    -0.02800
C1312       C  0.56222720  0.79270582  0.96148544     0.04000
N1313       N  0.57070049  0.82295651  0.93739337     0.66500
H1314       H  0.51994684  0.75682305  0.93771509     0.15400
H1315       H  0.58266584  0.77333490  0.03292205     0.15100
N1316       N  0.53005861  0.70978704  0.03415327     0.74200
O1317       O  0.58577857  0.80527747  0.91513499    -0.39200
O1318       O  0.55556499  0.86323646  0.93550066    -0.39200
O1319       O  0.54960056  0.67672812  0.04422446    -0.39900
O1320       O  0.50394321  0.72554595  0.04910110    -0.39900
C1321       C  0.36864521  0.86511534  0.03729162    -0.12200
C1322       C  0.40110278  0.84224876  0.02920168     0.04800
C1323       C  0.43265661  0.87028791  0.02529833    -0.07500
C1324       C  0.43023022  0.92016864  0.02611735    -0.08300
C1325       C  0.39685512  0.94275101  0.03070885    -0.02800
C1326       C  0.36637547  0.91511664  0.03802335     0.04000
N1327       N  0.33259377  0.93762614  0.04475458     0.66500
H1328       H  0.34426788  0.84438349  0.04086228     0.15400
H1329       H  0.45388103  0.94123054  0.02056498     0.15100
N1330       N  0.46683730  0.84881628  0.01853347     0.74200
O1331       O  0.30697255  0.93678195  0.02650082    -0.39200
O1332       O  0.32931712  0.96151250  0.06801781    -0.39200
O1333       O  0.47894982  0.85070938  0.99280767    -0.39900
O1334       O  0.48757161  0.83607798  0.03898761    -0.39900
C1335       C  0.58716543  0.92941385  0.39748120    -0.12200
C1336       C  0.58693416  0.88110079  0.40512556     0.04800
C1337       C  0.58274671  0.84641138  0.38272133    -0.07500
C1338       C  0.58169938  0.86040550  0.35342443    -0.08300
C1339       C  0.58477738  0.90855098  0.34559741    -0.02800
C1340       C  0.58602665  0.94346921  0.36820452     0.04000
N1341       N  0.58693210  0.99345053  0.36196246     0.66500
H1342       H  0.58970920  0.95663114  0.41427966     0.15400
H1343       H  0.58012349  0.83298604  0.33667719     0.15100
N1344       N  0.57989577  0.79664469  0.38919844     0.74200
O1345       O  0.55756650  0.01583885  0.35848992    -0.39200
O1346       O  0.61596497  0.01651211  0.36569642    -0.39200
O1347       O  0.54910291  0.77708772  0.38890130    -0.39900
O1348       O  0.60789067  0.77079494  0.38811230    -0.39900
C1349       C  0.70894279  0.01863310  0.51057173    -0.12200
C1350       C  0.70232369  0.98369884  0.48913610     0.04800
C1351       C  0.72346145  0.98408043  0.46360417    -0.07500
C1352       C  0.75131145  0.01782239  0.46026800    -0.08300
C1353       C  0.75979488  0.05111309  0.48244873    -0.02800
C1354       C  0.73740862  0.05194708  0.50759963     0.04000
N1355       N  0.74512159  0.08325646  0.53148721     0.66500
H1356       H  0.69321931  0.01834058  0.53056051     0.15400
H1357       H  0.76787584  0.01588209  0.44074961     0.15100
N1358       N  0.71896746  0.94781592  0.44190632     0.74200
O1359       O  0.72653663  0.12068999  0.53488430    -0.39200
O1360       O  0.76530623  0.06908553  0.55194587    -0.39200
O1361       O  0.70296134  0.95749611  0.41831226    -0.39900
O1362       O  0.73663142  0.90940500  0.44402821    -0.39900
C1363       C  0.74994833  0.78254533  0.44091384    -0.12200
C1364       C  0.72110637  0.75461101  0.45100740     0.04800
C1365       C  0.72777682  0.70680562  0.45892059    -0.07500
C1366       C  0.76339163  0.69373389  0.46583042    -0.08300
C1367       C  0.79219365  0.72572126  0.46133679    -0.02800
C1368       C  0.78564873  0.76770409  0.44511707     0.04000
N1369       N  0.81453325  0.79664831  0.43420374     0.66500
H1370       H  0.74480456  0.81803110  0.43247092     0.15400
H1371       H  0.76858804  0.65905010  0.47544505     0.15100
N1372       N  0.69873510  0.67281261  0.46171485     0.74200
O1373       O  0.83021510  0.78439295  0.41088214    -0.39200
O1374       O  0.81902826  0.83843256  0.44395305    -0.39200
O1375       O  0.67214280  0.67449601  0.44438813    -0.39900
O1376       O  0.70255082  0.63631533  0.47749156    -0.39900
C1377       C  0.49252527  0.79380591  0.53464876    -0.12200
C1378       C  0.50094047  0.81431065  0.50759494     0.04800
C1379       C  0.47740846  0.80591839  0.48375260    -0.07500
C1380       C  0.44788818  0.77481687  0.48665364    -0.08300
C1381       C  0.44159435  0.75043828  0.51283504    -0.02800
C1382       C  0.46327683  0.76182707  0.53741007     0.04000
N1383       N  0.45680690  0.73983198  0.56500613     0.66500
H1384       H  0.51062130  0.79913053  0.55305387     0.15400
H1385       H  0.43171192  0.76658397  0.46749118     0.15100
N1386       N  0.48542751  0.82481988  0.45555528     0.74200
O1387       O  0.47565102  0.70439818  0.57265210    -0.39200
O1388       O  0.43758247  0.76116370  0.58371953    -0.39200
O1389       O  0.49933198  0.79801871  0.43640832    -0.39900
O1390       O  0.47202914  0.86438764  0.44807868    -0.39900
C1391       C  0.67285971  0.66694640  0.54540169    -0.12200
C1392       C  0.63926745  0.69013511  0.54324858     0.04800
C1393       C  0.60741509  0.66272265  0.54715764    -0.07500
C1394       C  0.60924019  0.61266905  0.54620020    -0.08300
C1395       C  0.64273288  0.58943539  0.54331257    -0.02800
C1396       C  0.67476960  0.61694525  0.54626806     0.04000
N1397       N  0.70942110  0.59452829  0.54925229     0.66500
H1398       H  0.69782908  0.68726619  0.54409329     0.15400
H1399       H  0.58425496  0.59227685  0.54564307     0.15100
N1400       N  0.57302994  0.68536919  0.55112967     0.74200
O1401       O  0.73131266  0.59420645  0.52811340    -0.39200
O1402       O  0.72074474  0.58407683  0.57442245    -0.39200
O1403       O  0.54860782  0.68071225  0.53207810    -0.39900
O1404       O  0.56509558  0.70286845  0.57572398    -0.39900
C1405       C  0.69987953  0.84187116  0.86527774    -0.12200
C1406       C  0.70142865  0.87930790  0.84471524     0.04800
C1407       C  0.70593336  0.92637249  0.85499323    -0.07500
C1408       C  0.70379575  0.93558666  0.88495731    -0.08300
C1409       C  0.69814014  0.89860798  0.90522988    -0.02800
C1410       C  0.69839116  0.85105296  0.89528627     0.04000
N1411       N  0.69451384  0.81192631  0.91499128     0.66500
H1412       H  0.69789437  0.80503014  0.85802760     0.15400
H1413       H  0.70549713  0.97238645  0.89236704     0.15100
N1414       N  0.71131398  0.96537686  0.83544734     0.74200
O1415       O  0.66330932  0.79913365  0.92301047    -0.39200
O1416       O  0.72123906  0.78496636  0.91985530    -0.39200
O1417       O  0.68661873  0.99604956  0.83220941    -0.39900
O1418       O  0.74289382  0.97460282  0.82656783    -0.39900
C1419       C  0.80681949  0.81008242  0.76792772    -0.12200
C1420       C  0.78641993  0.81880126  0.74260798     0.04800
C1421       C  0.79896131  0.79969679  0.71598759    -0.07500
C1422       C  0.82738467  0.76592905  0.71599661    -0.08300
C1423       C  0.84556707  0.75359808  0.74199708    -0.02800
C1424       C  0.83666727  0.77896214  0.76774043     0.04000
N1425       N  0.85497956  0.76980534  0.79463215     0.66500
H1426       H  0.79780085  0.82489777  0.78861291     0.15400
H1427       H  0.83474970  0.74843696  0.69568519     0.15100
N1428       N  0.78257387  0.81340230  0.68902988     0.74200
O1429       O  0.88508632  0.78967190  0.79950552    -0.39200
O1430       O  0.83747407  0.75236545  0.81568508    -0.39200
O1431       O  0.79122687  0.85276987  0.67768577    -0.39900
O1432       O  0.76607544  0.78282046  0.67379220    -0.39900
C1433       C  0.61208939  0.66981830  0.70247785    -0.12200
C1434       C  0.64569770  0.69247715  0.70598613     0.04800
C1435       C  0.67753337  0.66494027  0.70260555    -0.07500
C1436       C  0.67547084  0.61518213  0.70353596    -0.08300
C1437       C  0.64184260  0.59272076  0.70651133    -0.02800
C1438       C  0.60997468  0.61967308  0.70126411     0.04000
N1439       N  0.57580684  0.59672595  0.69527550     0.66500
H1440       H  0.58747527  0.69085519  0.70266505     0.15400
H1441       H  0.70030549  0.59464822  0.70476066     0.15100
N1442       N  0.71208956  0.68724387  0.69938983     0.74200
O1443       O  0.54690740  0.62083105  0.69511048    -0.39200
O1444       O  0.57517862  0.55489102  0.68489365    -0.39200
O1445       O  0.73812984  0.67610985  0.71591476    -0.39900
O1446       O  0.71788418  0.71255466  0.67719114    -0.39900
C1447       C  0.55863767  0.71085016  0.79021738    -0.12200
C1448       C  0.56364967  0.75900298  0.79768155     0.04800
C1449       C  0.53382799  0.78561475  0.80797097    -0.07500
C1450       C  0.49895752  0.76736655  0.80465229    -0.08300
C1451       C  0.49347360  0.72305248  0.79106236    -0.02800
C1452       C  0.52360355  0.69252249  0.78678020     0.04000
N1453       N  0.51927287  0.64401551  0.77749401     0.66500
H1454       H  0.58151051  0.68923424  0.78328880     0.15400
H1455       H  0.47615543  0.79037576  0.80979070     0.15100
N1456       N  0.53814581  0.83359347  0.81808041     0.74200
O1457       O  0.51843436  0.63435990  0.75060433    -0.39200
O1458       O  0.52530371  0.61084771  0.79543015    -0.39200
O1459       O  0.54690975  0.84101718  0.84433275    -0.39900
O1460       O  0.52568664  0.86752512  0.80303792    -0.39900
C1461       C  0.67507802  0.91914117  0.63832580    -0.12200
C1462       C  0.64488646  0.90976565  0.65578607     0.04800
C1463       C  0.61013279  0.90701548  0.64249254    -0.07500
C1464       C  0.60684819  0.90736867  0.61206685    -0.08300
C1465       C  0.63761270  0.91083543  0.59455109    -0.02800
C1466       C  0.67162531  0.91999785  0.60781910     0.04000
N1467       N  0.70311255  0.92832997  0.59041734     0.66500
H1468       H  0.70172377  0.92239818  0.64816255     0.15400
H1469       H  0.58055047  0.90096743  0.60217579     0.15100
N1470       N  0.57810734  0.90060330  0.65962007     0.74200
O1471       O  0.70940860  0.96990221  0.58118113    -0.39200
O1472       O  0.72768399  0.89705259  0.58905290    -0.39200
O1473       O  0.55988308  0.93666160  0.66727021    -0.39900
O1474       O  0.56425951  0.85955755  0.66178663    -0.39900
C1475       C  0.54258027  0.03095448  0.79018926    -0.12200
C1476       C  0.52696247  0.05316377  0.76568673     0.04800
C1477       C  0.54200988  0.04353012  0.73792925    -0.07500
C1478       C  0.57054614  0.01050609  0.73505784    -0.08300
C1479       C  0.58501154  0.98676419  0.75939383    -0.02800
C1480       C  0.57149192  0.99842366  0.78732025     0.04000
N1481       N  0.58520736  0.97539143  0.81280129     0.66500
H1482       H  0.53129097  0.03749022  0.81169943     0.15400
H1483       H  0.58018406  0.00135461  0.71337343     0.15100
N1484       N  0.52581858  0.06243179  0.71210312     0.74200
O1485       O  0.61177095  0.99367101  0.82605501    -0.39200
O1486       O  0.56574370  0.94528008  0.82587040    -0.39200
O1487       O  0.54268653  0.09296806  0.69717300    -0.39900
O1488       O  0.49788524  0.04277187  0.70166805    -0.39900
C1489       C  0.07021433  0.42952350  0.36004183    -0.12200
C1490       C  0.08123266  0.39447202  0.33968015     0.04800
C1491       C  0.09016229  0.34867475  0.34995405    -0.07500
C1492       C  0.09121684  0.34026435  0.37998001    -0.08300
C1493       C  0.08366493  0.37669912  0.40054164    -0.02800
C1494       C  0.07130794  0.42110436  0.39014813     0.04000
N1495       N  0.06113639  0.45866002  0.40966915     0.66500
H1496       H  0.06217392  0.46473568  0.35262510     0.15400
H1497       H  0.09961735  0.30505705  0.38710506     0.15100
N1498       N  0.10087220  0.31127179  0.33047481     0.74200
O1499       O  0.08401366  0.49019925  0.41662400    -0.39200
O1500       O  0.02809370  0.46510272  0.41557224    -0.39200
O1501       O  0.13410170  0.30402106  0.32568024    -0.39900
O1502       O  0.07793305  0.28037517  0.32261754    -0.39900
C1503       C  0.99782127  0.28867344  0.53485965    -0.12200
C1504       C  0.00202950  0.31317233  0.50844252     0.04800
C1505       C  0.97518055  0.30785299  0.48672974    -0.07500
C1506       C  0.94658982  0.27540654  0.49065026    -0.08300
C1507       C  0.94430052  0.24718112  0.51590305    -0.02800
C1508       C  0.96931665  0.25596063  0.53879519     0.04000
N1509       N  0.96705159  0.23060671  0.56574184     0.66500
H1510       H  0.01845354  0.29191192  0.55164501     0.15400
H1511       H  0.92760475  0.26987714  0.47286251     0.15100
N1512       N  0.97814173  0.33275321  0.45966172     0.74200
O1513       O  0.98742544  0.19512029  0.57008289    -0.39200
O1514       O  0.95025164  0.24905895  0.58694589    -0.39200
O1515       O  0.98738527  0.31047755  0.43686134    -0.39900
O1516       O  0.96599150  0.37474163  0.45765524    -0.39900
C1517       C  0.17764117  0.12344463  0.54308259    -0.12200
C1518       C  0.14505461  0.09709613  0.54178922     0.04800
C1519       C  0.11213497  0.12166024  0.54647192    -0.07500
C1520       C  0.11174880  0.17162271  0.54560810    -0.08300
C1521       C  0.14387930  0.19767921  0.54121603    -0.02800
C1522       C  0.17722366  0.17351490  0.54370009     0.04000
N1523       N  0.21073665  0.19909573  0.54457382     0.66500
H1524       H  0.20355173  0.10534901  0.54157782     0.15400
H1525       H  0.08579493  0.18980031  0.54572805     0.15100
N1526       N  0.07855977  0.09677828  0.54960566     0.74200
O1527       O  0.21951208  0.22196193  0.56728553    -0.39200
O1528       O  0.22980173  0.20280621  0.52188609    -0.39200
O1529       O  0.06659288  0.08832292  0.57485000    -0.39900
O1530       O  0.05784622  0.09185569  0.52788826    -0.39900
C1531       C  0.23795920  0.53934180  0.45581470    -0.12200
C1532       C  0.25406338  0.56047605  0.48059945     0.04800
C1533       C  0.23962242  0.54960699  0.50834512    -0.07500
C1534       C  0.21132763  0.51631227  0.51086407    -0.08300
C1535       C  0.19674846  0.49318542  0.48628081    -0.02800
C1536       C  0.20941847  0.50624244  0.45842656     0.04000
N1537       N  0.19565638  0.48335254  0.43281177     0.66500
H1538       H  0.24881492  0.54680626  0.43428783     0.15400
H1539       H  0.20213484  0.50614748  0.53247229     0.15100
N1540       N  0.25644701  0.56713114  0.53436595     0.74200
O1541       O  0.16959194  0.50202447  0.41914402    -0.39200
O1542       O  0.21356126  0.45014352  0.42098616    -0.39200
O1543       O  0.24013900  0.59727159  0.55012693    -0.39900
O1544       O  0.28452274  0.54678825  0.54397747    -0.39900
C1545       C  0.19923920  0.34546661  0.86102516    -0.12200
C1546       C  0.19819649  0.38191561  0.83986184     0.04800
C1547       C  0.19962424  0.42978223  0.84936270    -0.07500
C1548       C  0.19884825  0.44013564  0.87929997    -0.08300
C1549       C  0.19671717  0.40366823  0.90041742    -0.02800
C1550       C  0.19841350  0.35577400  0.89093402     0.04000
N1551       N  0.19680457  0.31704125  0.91111289     0.66500
H1552       H  0.19902864  0.30824377  0.85435600     0.15400
H1553       H  0.19863365  0.47735409  0.88596661     0.15100
N1554       N  0.19958194  0.46839600  0.82906845     0.74200
O1555       O  0.16640795  0.30040117  0.91852734    -0.39200
O1556       O  0.22526766  0.29401391  0.91702324    -0.39200
O1557       O  0.17031373  0.48983236  0.82347141    -0.39900
O1558       O  0.22928718  0.48668869  0.82131882    -0.39900
C1559       C  0.04592638  0.55295968  0.74488480    -0.12200
C1560       C  0.02648137  0.55007518  0.77124946     0.04800
C1561       C  0.03706240  0.51450113  0.79164164    -0.07500
C1562       C  0.06481088  0.48198636  0.78477882    -0.08300
C1563       C  0.08286735  0.48365170  0.75796517    -0.02800
C1564       C  0.07372087  0.52018196  0.73809067     0.04000
N1565       N  0.09152572  0.52352822  0.71049121     0.66500
H1566       H  0.03839417  0.57938965  0.72872713     0.15400
H1567       H  0.07132833  0.45387413  0.80016823     0.15100
N1568       N  0.01901210  0.50942542  0.81904656     0.74200
O1569       O  0.07361885  0.51685389  0.68735774    -0.39200
O1570       O  0.12214225  0.54342858  0.70906451    -0.39200
O1571       O  0.99614733  0.47636734  0.82234463    -0.39900
O1572       O  0.03114919  0.53107323  0.84118714    -0.39900
C1573       C  0.30483659  0.30734911  0.76105806    -0.12200
C1574       C  0.28256132  0.31329365  0.73644772     0.04800
C1575       C  0.29347755  0.29246971  0.70984395    -0.07500
C1576       C  0.32297065  0.26049913  0.70934602    -0.08300
C1577       C  0.34300330  0.25067806  0.73484999    -0.02800
C1578       C  0.33532517  0.27741655  0.76026197     0.04000
N1579       N  0.35540525  0.27006540  0.78650718     0.66500
H1580       H  0.29690963  0.32322394  0.78171112     0.15400
H1581       H  0.32908043  0.24148332  0.68930176     0.15100
N1582       N  0.27338056  0.30074475  0.68369601     0.74200
O1583       O  0.38432995  0.29296900  0.79101455    -0.39200
O1584       O  0.34336112  0.24231737  0.80580274    -0.39200
O1585       O  0.28530911  0.32969158  0.66498619    -0.39900
O1586       O  0.24651827  0.27482785  0.67752258    -0.39900
C1587       C  0.10612621  0.16443522  0.70308828    -0.12200
C1588       C  0.13974222  0.18777321  0.70367457     0.04800
C1589       C  0.17125585  0.16019289  0.69884132    -0.07500
C1590       C  0.16991363  0.11048597  0.70179883    -0.08300
C1591       C  0.13690553  0.08781201  0.70762001    -0.02800
C1592       C  0.10444611  0.11435274  0.70443073     0.04000
N1593       N  0.06985932  0.09100517  0.70462942     0.66500
H1594       H  0.08128199  0.18493374  0.70455878     0.15400
H1595       H  0.19500111  0.09036285  0.70182039     0.15100
N1596       N  0.20469778  0.18230409  0.69111573     0.74200
O1597       O  0.04399971  0.10771881  0.71952161    -0.39200
O1598       O  0.06492952  0.05396168  0.68934907    -0.39200
O1599       O  0.23034557  0.18361592  0.70929416    -0.39900
O1600       O  0.21129752  0.18952484  0.66447949    -0.39900
C1601       C  0.17141825  0.41809488  0.63462691    -0.12200
C1602       C  0.14114719  0.40589882  0.65130849     0.04800
C1603       C  0.10680434  0.40160952  0.63740343    -0.07500
C1604       C  0.10426002  0.40480326  0.60697338    -0.08300
C1605       C  0.13523386  0.41179524  0.59010300    -0.02800
C1606       C  0.16884297  0.42042122  0.60415719     0.04000
N1607       N  0.20120302  0.42776649  0.58762736     0.66500
H1608       H  0.19773695  0.42160224  0.64493421     0.15400
H1609       H  0.07848893  0.39794938  0.59638081     0.15100
N1610       N  0.07468289  0.39064272  0.65369316     0.74200
O1611       O  0.21346476  0.46955831  0.58490679    -0.39200
O1612       O  0.22161262  0.39268306  0.58215565    -0.39200
O1613       O  0.06600200  0.41550129  0.67562420    -0.39900
O1614       O  0.05474515  0.35615824  0.64605094    -0.39900
C1615       C  0.44154026  0.10577533  0.60645360    -0.12200
C1616       C  0.43699413  0.15170620  0.59492213     0.04800
C1617       C  0.43603085  0.19121148  0.61432414    -0.07500
C1618       C  0.43761278  0.18368592  0.64459861    -0.08300
C1619       C  0.43852035  0.13739481  0.65616284    -0.02800
C1620       C  0.44111381  0.09808686  0.63668540     0.04000
N1621       N  0.44022973  0.04990067  0.64699176     0.66500
H1622       H  0.44148047  0.07505094  0.59198347     0.15400
H1623       H  0.43488119  0.21408112  0.65916237     0.15100
N1624       N  0.43046735  0.23878916  0.60377623     0.74200
O1625       O  0.40995685  0.03001840  0.65105765    -0.39200
O1626       O  0.46800707  0.02407786  0.64395840    -0.39200
O1627       O  0.40415423  0.26330525  0.61306657    -0.39900
O1628       O  0.45146389  0.25625735  0.58491178    -0.39900
C1629       C  0.33621981  0.00355992  0.49414215    -0.12200
C1630       C  0.33881348  0.03460289  0.51821765     0.04800
C1631       C  0.31390353  0.02886833  0.54149002    -0.07500
C1632       C  0.28508921  0.99618517  0.53886961    -0.08300
C1633       C  0.28041924  0.96882746  0.51346460    -0.02800
C1634       C  0.30707935  0.97154161  0.49138135     0.04000
N1635       N  0.30288792  0.94557561  0.46466145     0.66500
H1636       H  0.35491817  0.00717888  0.47605924     0.15400
H1637       H  0.26455708  0.99512945  0.55577048     0.15100
N1638       N  0.31630510  0.05790897  0.56722072     0.74200
O1639       O  0.28542862  0.96404838  0.44388016    -0.39200
O1640       O  0.32261934  0.90962398  0.45978449    -0.39200
O1641       O  0.28936386  0.08224331  0.57546121    -0.39900
O1642       O  0.34543429  0.05956038  0.58166749    -0.39900
C1643       C  0.54020083  0.25140028  0.46133040    -0.12200
C1644       C  0.52557764  0.22626839  0.48523144     0.04800
C1645       C  0.54257459  0.23169021  0.51275919    -0.07500
C1646       C  0.57029719  0.26563422  0.51650110    -0.08300
C1647       C  0.58306439  0.29285776  0.49304969    -0.02800
C1648       C  0.56909063  0.28381447  0.46496216     0.04000
N1649       N  0.58290675  0.30880140  0.44016977     0.66500
H1650       H  0.52802335  0.24750707  0.43990368     0.15400
H1651       H  0.58152494  0.27146757  0.53807048     0.15100
N1652       N  0.53048902  0.20543135  0.53759745     0.74200
O1653       O  0.58139745  0.35376218  0.43916159    -0.39200
O1654       O  0.60108404  0.28645579  0.42123800    -0.39200
O1655       O  0.54162974  0.16326772  0.54128232    -0.39900
O1656       O  0.51595282  0.22732036  0.55864712    -0.39900
C1657       C  0.41952503  0.37067835  0.52537156    -0.12200
C1658       C  0.38774510  0.34359701  0.52224984     0.04800
C1659       C  0.35408181  0.36742918  0.52113954    -0.07500
C1660       C  0.35312044  0.41736433  0.51898700    -0.08300
C1661       C  0.38523632  0.44436413  0.51953969    -0.02800
C1662       C  0.41840800  0.42069945  0.52486780     0.04000
N1663       N  0.45162433  0.44661002  0.52726481     0.66500
H1664       H  0.44552785  0.35288406  0.52679976     0.15400
H1665       H  0.32729362  0.43492000  0.51568808     0.15100
N1666       N  0.32091375  0.34128726  0.51926085     0.74200
O1667       O  0.46192961  0.46212149  0.55179319    -0.39200
O1668       O  0.46996604  0.45566639  0.50475197    -0.39200
O1669       O  0.30575301  0.32640598  0.54216386    -0.39900
O1670       O  0.30649546  0.33352355  0.49474984    -0.39900
C1671       C  0.22661161  0.21488491  0.45278115    -0.12200
C1672       C  0.22251429  0.26375278  0.44708739     0.04800
C1673       C  0.25300055  0.29037744  0.43833893    -0.07500
C1674       C  0.28746462  0.27114121  0.44224392    -0.08300
C1675       C  0.29175215  0.22600470  0.45498452    -0.02800
C1676       C  0.26116584  0.19565623  0.45719624     0.04000
N1677       N  0.26435021  0.14608702  0.46454424     0.66500
H1678       H  0.20316411  0.19314184  0.45799411     0.15400
H1679       H  0.31075824  0.29388106  0.43836194     0.15100
N1680       N  0.24957843  0.33890120  0.42908271     0.74200
O1681       O  0.26781123  0.13382223  0.49086801    -0.39200
O1682       O  0.25449629  0.11511868  0.44609371    -0.39200
O1683       O  0.26114166  0.37215768  0.44526157    -0.39900
O1684       O  0.24203223  0.34761078  0.40277026    -0.39900
C1685       C  0.32090189  0.17269765  0.13941199    -0.12200
C1686       C  0.33291586  0.13445846  0.15679270     0.04800
C1687       C  0.34365380  0.09178429  0.14286889    -0.07500
C1688       C  0.34582605  0.08985410  0.11234333    -0.08300
C1689       C  0.33785339  0.12992284  0.09500148    -0.02800
C1690       C  0.32275322  0.17053728  0.10872248     0.04000
N1691       N  0.31270301  0.21158743  0.09217247     0.66500
H1692       H  0.31267937  0.20587241  0.14978212     0.15400
H1693       H  0.35693440  0.05790213  0.10227750     0.15100
N1694       N  0.35813538  0.05291594  0.15930160     0.74200
O1695       O  0.28043142  0.21593138  0.08343613    -0.39200
O1696       O  0.33375607  0.24703878  0.09114844    -0.39200
O1697       O  0.33970698  0.01528512  0.16214502    -0.39900
O1698       O  0.39166263  0.05186465  0.16467062    -0.39900
C1699       C  0.23324704  0.22683340  0.25000383    -0.12200
C1700       C  0.25990881  0.23525366  0.27152301     0.04800
C1701       C  0.25646362  0.27753458  0.28866394    -0.07500
C1702       C  0.22951033  0.31139592  0.28230247    -0.08300
C1703       C  0.20423938  0.30404421  0.25991185    -0.02800
C1704       C  0.20546180  0.26039961  0.24434678     0.04000
N1705       N  0.18034952  0.25116682  0.22127213     0.66500
H1706       H  0.23482929  0.19499815  0.23651537     0.15400
H1707       H  0.22863191  0.34431277  0.29487275     0.15100
N1708       N  0.28056872  0.28755856  0.31234306     0.74200
O1709       O  0.18747048  0.26496776  0.19572552    -0.39200
O1710       O  0.15431433  0.22279592  0.22541560    -0.39200
O1711       O  0.30516556  0.31842731  0.30923772    -0.39900
O1712       O  0.27276498  0.27302051  0.33760783    -0.39900
C1713       C  0.35285040  0.36370178  0.22165340    -0.12200
C1714       C  0.38487918  0.33699052  0.22387410     0.04800
C1715       C  0.41840425  0.36109486  0.22485830    -0.07500
C1716       C  0.41903292  0.41087754  0.22686467    -0.08300
C1717       C  0.38694080  0.43764780  0.22701365    -0.02800
C1718       C  0.35361339  0.41373914  0.22250684     0.04000
N1719       N  0.32015699  0.43939186  0.22113241     0.66500
H1720       H  0.32680744  0.34546750  0.22073110     0.15400
H1721       H  0.44509878  0.42877290  0.23010774     0.15100
N1722       N  0.45154703  0.33532940  0.22804571     0.74200
O1723       O  0.30901152  0.45442741  0.19679772    -0.39200
O1724       O  0.29855556  0.43804012  0.24244021    -0.39200
O1725       O  0.47118035  0.32745022  0.20601915    -0.39900
O1726       O  0.46396466  0.32771744  0.25324281    -0.39900
C1727       C  0.47615208  0.97588230  0.26168042    -0.12200
C1728       C  0.50119049  0.97358227  0.23861039     0.04800
C1729       C  0.49212064  0.99574044  0.21200410    -0.07500
C1730       C  0.46173189  0.02605659  0.21060706    -0.08300
C1731       C  0.43798173  0.03147302  0.23443199    -0.02800
C1732       C  0.44379735  0.00229628  0.25919969     0.04000
N1733       N  0.41743178  0.99928243  0.28198433     0.66500
H1734       H  0.48217765  0.95784371  0.28204542     0.15400
H1735       H  0.45695014  0.04608287  0.19075440     0.15100
N1736       N  0.51369475  0.98826246  0.18642935     0.74200
O1737       O  0.39002071  0.97295477  0.27840652    -0.39200
O1738       O  0.42488909  0.01442080  0.30722952    -0.39200
O1739       O  0.51852817  0.94622697  0.17717544    -0.39900
O1740       O  0.52061766  0.02284123  0.16976416    -0.39900
C1741       C  0.35914770  0.10331457  0.36699092    -0.12200
C1742       C  0.38494883  0.11104916  0.34523972     0.04800
C1743       C  0.42223221  0.11038998  0.35319391    -0.07500
C1744       C  0.43240550  0.10828809  0.38269892    -0.08300
C1745       C  0.40619174  0.10840951  0.40462272    -0.02800
C1746       C  0.36938650  0.10277161  0.39653250     0.04000
N1747       N  0.34156974  0.10498052  0.41805006     0.66500
H1748       H  0.33055238  0.10414982  0.36147096     0.15400
H1749       H  0.46068320  0.11330708  0.38846694     0.15100
N1750       N  0.45005964  0.11847644  0.33211896     0.74200
O1751       O  0.32259794  0.14229713  0.41987139    -0.39200
O1752       O  0.33031948  0.06690478  0.42954150    -0.39200
O1753       O  0.46027935  0.16079188  0.32774115    -0.39900
O1754       O  0.47159487  0.08486322  0.32609437    -0.39900
C1755       C  0.69484322  0.43989014  0.38492900    -0.12200
C1756       C  0.69541991  0.40151834  0.40481966     0.04800
C1757       C  0.69941881  0.35475531  0.39388041    -0.07500
C1758       C  0.69824934  0.34703914  0.36370958    -0.08300
C1759       C  0.69427661  0.38514374  0.34393277    -0.02800
C1760       C  0.69448348  0.43217811  0.35476896     0.04000
N1761       N  0.69186670  0.47232724  0.33572089     0.66500
H1762       H  0.69307513  0.47640428  0.39282801     0.15400
H1763       H  0.69987094  0.31057847  0.35568789     0.15100
N1764       N  0.70351165  0.31467943  0.41288211     0.74200
O1765       O  0.66110242  0.48918853  0.32951051    -0.39200
O1766       O  0.71991287  0.49636996  0.33011445    -0.39200
O1767       O  0.68120261  0.28059798  0.41148266    -0.39900
O1768       O  0.73319291  0.30865947  0.42608100    -0.39900
C1769       C  0.58361996  0.52428285  0.26306564    -0.12200
C1770       C  0.57588326  0.47809158  0.25212334     0.04800
C1771       C  0.53927298  0.46770169  0.24462546    -0.07500
C1772       C  0.51222377  0.50167724  0.24895115    -0.08300
C1773       C  0.51945764  0.54670228  0.26066834    -0.02800
C1774       C  0.55577772  0.55868642  0.26712796     0.04000
N1775       N  0.56469658  0.60496363  0.27813262     0.66500
H1776       H  0.61135896  0.53381434  0.26845504     0.15400
H1777       H  0.48431229  0.49208008  0.24353835     0.15100
N1778       N  0.52849607  0.42225767  0.23320480     0.74200
O1779       O  0.56672452  0.61171088  0.30532476    -0.39200
O1780       O  0.57691651  0.63618923  0.26096505    -0.39200
O1781       O  0.52804819  0.38624462  0.24965002    -0.39900
O1782       O  0.51424669  0.41963625  0.20820346    -0.39900
C1783       C  0.79184093  0.30073510  0.21490084    -0.12200
C1784       C  0.78459160  0.32153365  0.24218692     0.04800
C1785       C  0.80977102  0.31462706  0.26507409    -0.07500
C1786       C  0.83915008  0.28322646  0.26128996    -0.08300
C1787       C  0.84364577  0.25746515  0.23516925    -0.02800
C1788       C  0.82110470  0.26899725  0.21121255     0.04000
N1789       N  0.82760902  0.24867940  0.18304924     0.66500
H1790       H  0.77312020  0.30619360  0.19694367     0.15400
H1791       H  0.85672532  0.27599803  0.27974480     0.15100
N1792       N  0.80482498  0.33747976  0.29278099     0.74200
O1793       O  0.80862302  0.21409213  0.17420917    -0.39200
O1794       O  0.84740118  0.27074685  0.16516332    -0.39200
O1795       O  0.78290641  0.32025898  0.31106225    -0.39900
O1796       O  0.82669373  0.36959043  0.30080637    -0.39900
C1797       C  0.62342406  0.16615668  0.19976591    -0.12200
C1798       C  0.65630787  0.18965197  0.20548692     0.04800
C1799       C  0.68888012  0.16259461  0.20419924    -0.07500
C1800       C  0.68671354  0.11248173  0.20686511    -0.08300
C1801       C  0.65296663  0.08955453  0.20643250    -0.02800
C1802       C  0.62227243  0.11625762  0.19838440     0.04000
N1803       N  0.58978764  0.09248086  0.18965092     0.66500
H1804       H  0.59835051  0.18615352  0.19794030     0.15400
H1805       H  0.71106972  0.09171570  0.21062306     0.15100
N1806       N  0.72356752  0.18510802  0.19965073     0.74200
O1807       O  0.56235162  0.09349575  0.20595859    -0.39200
O1808       O  0.59077881  0.06341596  0.16855617    -0.39200
O1809       O  0.75195436  0.15996458  0.19878214    -0.39900
O1810       O  0.72515273  0.22731972  0.19012993    -0.39900
C1811       C  0.55665048  0.21030976  0.27600796    -0.12200
C1812       C  0.56257717  0.25510861  0.28877914     0.04800
C1813       C  0.53350996  0.27941397  0.30201828    -0.07500
C1814       C  0.49825495  0.26257249  0.29799257    -0.08300
C1815       C  0.49171318  0.22200945  0.28066919    -0.02800
C1816       C  0.52142907  0.19344588  0.27191216     0.04000
N1817       N  0.51633672  0.15005175  0.25597427     0.66500
H1818       H  0.57893668  0.19113285  0.26591252     0.15400
H1819       H  0.47592422  0.28340573  0.30661914     0.15100
N1820       N  0.53931630  0.32278878  0.31792981     0.74200
O1821       O  0.51454750  0.15144970  0.22850323    -0.39200
O1822       O  0.50696640  0.11259213  0.26920427    -0.39200
O1823       O  0.52340122  0.36058934  0.31020304    -0.39900
O1824       O  0.55425209  0.32107818  0.34268958    -0.39900
C1825       C  0.57911093  0.34802957  0.88312372    -0.12200
C1826       C  0.58030288  0.38506818  0.90413803     0.04800
C1827       C  0.57845580  0.43267513  0.89449255    -0.07500
C1828       C  0.57918006  0.44227711  0.86451320    -0.08300
C1829       C  0.58190890  0.40522935  0.84365175    -0.02800
C1830       C  0.58001627  0.35766354  0.85318646     0.04000
N1831       N  0.58245444  0.31874062  0.83302948     0.66500
H1832       H  0.57954131  0.31100850  0.88994586     0.15400
H1833       H  0.57960378  0.47925625  0.85760759     0.15100
N1834       N  0.57904026  0.47174484  0.91462963     0.74200
O1835       O  0.61303987  0.30215602  0.82598420    -0.39200
O1836       O  0.55407143  0.30159091  0.82174944    -0.39200
O1837       O  0.60885195  0.49115809  0.92111843    -0.39900
O1838       O  0.54978516  0.49249895  0.92118998    -0.39900
C1839       C  0.68265630  0.40673306  0.13502507    -0.12200
C1840       C  0.65248034  0.41136437  0.15303886     0.04800
C1841       C  0.61799682  0.41935125  0.14041877    -0.07500
C1842       C  0.61373541  0.41813437  0.11003700    -0.08300
C1843       C  0.64324543  0.40745279  0.09207988    -0.02800
C1844       C  0.67842905  0.40400797  0.10473366     0.04000
N1845       N  0.70980016  0.39345534  0.08748441     0.66500
H1846       H  0.70910975  0.40002079  0.14454826     0.15400
H1847       H  0.58676394  0.42098806  0.10074930     0.15100
N1848       N  0.58648610  0.42375653  0.15832978     0.74200
O1849       O  0.73331778  0.42554806  0.08376156    -0.39200
O1850       O  0.71879359  0.35038912  0.08364048    -0.39200
O1851       O  0.57534368  0.46472749  0.16555439    -0.39900
O1852       O  0.56609172  0.38806643  0.16181286    -0.39900
C1853       C  0.46055051  0.26501489  0.03880237    -0.12200
C1854       C  0.43990721  0.25179894  0.01408972     0.04800
C1855       C  0.44687851  0.27523369  0.98745359    -0.07500
C1856       C  0.47694841  0.30551365  0.98495625    -0.08300
C1857       C  0.49968061  0.31497042  0.00882695    -0.02800
C1858       C  0.48970551  0.29747355  0.03646941     0.04000
N1859       N  0.50975536  0.31070764  0.06198829     0.66500
H1860       H  0.45512156  0.24836576  0.05965508     0.15400
H1861       H  0.48403009  0.31931305  0.96362322     0.15100
N1862       N  0.42635503  0.26451493  0.96181033     0.74200
O1863       O  0.49626141  0.34041699  0.07967110    -0.39200
O1864       O  0.54277039  0.29965880  0.06429121    -0.39200
O1865       O  0.39553470  0.28329057  0.95851936    -0.39900
O1866       O  0.44221280  0.24661183  0.93999105    -0.39900
C1867       C  0.67452131  0.16877006  0.04066532    -0.12200
C1868       C  0.64111848  0.19275440  0.03878999     0.04800
C1869       C  0.60917499  0.16674285  0.04504166    -0.07500
C1870       C  0.61002892  0.11670917  0.04545527    -0.08300
C1871       C  0.64276591  0.09255511  0.04109376    -0.02800
C1872       C  0.67535345  0.11877256  0.04318150     0.04000
N1873       N  0.70906311  0.09455727  0.04765332     0.66500
H1874       H  0.69961776  0.18826541  0.03851127     0.15400
H1875       H  0.58478559  0.09712078  0.04640137     0.15100
N1876       N  0.57563058  0.19070967  0.05027860     0.74200
O1877       O  0.72873778  0.08382988  0.02612483    -0.39200
O1878       O  0.71480460  0.07450206  0.07183535    -0.39200
O1879       O  0.54888356  0.18350276  0.03365070    -0.39900
O1880       O  0.57081341  0.21110248  0.07455811    -0.39900
C1881       C  0.73401801  0.55349336  0.00797440    -0.12200
C1882       C  0.75570694  0.55254331  0.98272985     0.04800
C1883       C  0.74508876  0.52217237  0.95933997    -0.07500
C1884       C  0.71562615  0.49098635  0.96253054    -0.08300
C1885       C  0.69576731  0.48969906  0.98846427    -0.02800
C1886       C  0.70414042  0.52253082  0.01087720     0.04000
N1887       N  0.68361106  0.52283771  0.03732220     0.66500
H1888       H  0.74151104  0.57619328  0.02620578     0.15400
H1889       H  0.70944557  0.46583283  0.94518359     0.15100
N1890       N  0.76486067  0.52106951  0.93253020     0.74200
O1891       O  0.69751422  0.50758436  0.06065188    -0.39200
O1892       O  0.65085425  0.53579836  0.03703697    -0.39200
O1893       O  0.78493436  0.48575594  0.92680687    -0.39900
O1894       O  0.75603896  0.54923890  0.91230673    -0.39900
C1895       C  0.83960422  0.10491433  0.64446195    -0.12200
C1896       C  0.84405318  0.15095002  0.65611070     0.04800
C1897       C  0.84436443  0.19026835  0.63675513    -0.07500
C1898       C  0.84369400  0.18265229  0.60649470    -0.08300
C1899       C  0.84353741  0.13631254  0.59488259    -0.02800
C1900       C  0.83978491  0.09723732  0.61414848     0.04000
N1901       N  0.83798019  0.04934659  0.60332179     0.66500
H1902       H  0.83916559  0.07426096  0.65887979     0.15400
H1903       H  0.84646775  0.21309448  0.59207269     0.15100
N1904       N  0.84707273  0.23813476  0.64744479     0.74200
O1905       O  0.86659247  0.02478965  0.60163092    -0.39200
O1906       O  0.80765914  0.02863621  0.60198752    -0.39200
O1907       O  0.87709577  0.25961647  0.64618584    -0.39900
O1908       O  0.81846763  0.26193730  0.65145794    -0.39900
C1909       C  0.74365800  0.24071797  0.73876261    -0.12200
C1910       C  0.75659032  0.23107768  0.76695291     0.04800
C1911       C  0.73891684  0.25302074  0.79094453    -0.07500
C1912       C  0.71073981  0.28614042  0.78626770    -0.08300
C1913       C  0.69985309  0.29840245  0.75793066    -0.02800
C1914       C  0.71584146  0.27415614  0.73409175     0.04000
N1915       N  0.70513029  0.28455316  0.70483278     0.66500
H1916       H  0.75687105  0.22463110  0.71999607     0.15400
H1917       H  0.69865048  0.30421993  0.80484843     0.15100
N1918       N  0.74975936  0.24271210  0.82018763     0.74200
O1919       O  0.72674622  0.30654296  0.68836398    -0.39200
O1920       O  0.67867363  0.26243946  0.69374043    -0.39200
O1921       O  0.76692019  0.27366527  0.83473970    -0.39900
O1922       O  0.73613062  0.20729454  0.83311161    -0.39900
C1923       C  0.86258876  0.42328885  0.72568921    -0.12200
C1924       C  0.89671152  0.44490390  0.72895437     0.04800
C1925       C  0.92812259  0.41603090  0.72811207    -0.07500
C1926       C  0.92475441  0.36629726  0.72668678    -0.08300
C1927       C  0.89049283  0.34461519  0.72657457    -0.02800
C1928       C  0.85922194  0.37343532  0.72453687     0.04000
N1929       N  0.82390048  0.35236582  0.72268216     0.66500
H1930       H  0.83825080  0.44496550  0.72603297     0.15400
H1931       H  0.94899588  0.34456371  0.72822298     0.15100
N1932       N  0.96353859  0.43649219  0.73038433     0.74200
O1933       O  0.79947338  0.36414305  0.74058201    -0.39200
O1934       O  0.81716003  0.32147244  0.70330889    -0.39200
O1935       O  0.98037430  0.43470338  0.75434694    -0.39900
O1936       O  0.98045312  0.44761718  0.70747626    -0.39900
C1937       C  0.94665912  0.01230404  0.76383488    -0.12200
C1938       C  0.94304652  0.03767200  0.73759732     0.04800
C1939       C  0.96676672  0.02630405  0.71432956    -0.07500
C1940       C  0.99562498  0.99417645  0.71870514    -0.08300
C1941       C  0.00175477  0.97349749  0.74611529    -0.02800
C1942       C  0.97599687  0.98123223  0.76844847     0.04000
N1943       N  0.98044645  0.95992844  0.79654347     0.66500
H1944       H  0.92833409  0.01957826  0.78181128     0.15400
H1945       H  0.01484803  0.98809761  0.70118372     0.15100
N1946       N  0.96217772  0.04760528  0.68627674     0.74200
O1947       O  0.00097262  0.97941632  0.81511226    -0.39200
O1948       O  0.95863753  0.92794639  0.80467867    -0.39200
O1949       O  0.98296446  0.08088045  0.67835594    -0.39900
O1950       O  0.94171646  0.02785752  0.66774992    -0.39900
C1951       C  0.03379179  0.29323547  0.80804799    -0.12200
C1952       C  0.06168630  0.26243394  0.79904969     0.04800
C1953       C  0.05376124  0.21372833  0.79496652    -0.07500
C1954       C  0.01769064  0.19988739  0.79145696    -0.08300
C1955       C  0.98961859  0.23351387  0.79415328    -0.02800
C1956       C  0.99763576  0.27890183  0.80604475     0.04000
N1957       N  0.96980404  0.31266488  0.81282001     0.66500
H1958       H  0.03974069  0.33039189  0.81290068     0.15400
H1959       H  0.01185488  0.16363492  0.78443145     0.15100
N1960       N  0.08180269  0.17938153  0.79038972     0.74200
O1961       O  0.95875865  0.31637327  0.83878862    -0.39200
O1962       O  0.96167220  0.34458898  0.79458240    -0.39200
O1963       O  0.09241515  0.15424473  0.81153331    -0.39900
O1964       O  0.08981854  0.16684420  0.76477508    -0.39900
C1965       C  0.93895856  0.09664843  0.10775111    -0.12200
C1966       C  0.94491063  0.14140865  0.09513910     0.04800
C1967       C  0.95291136  0.18060641  0.11352955    -0.07500
C1968       C  0.95100626  0.17567544  0.14404693    -0.08300
C1969       C  0.94115197  0.13192694  0.15670977    -0.02800
C1970       C  0.93689733  0.09157321  0.13817417     0.04000
N1971       N  0.92802745  0.04570691  0.14978351     0.66500
H1972       H  0.93250778  0.06628101  0.09394987     0.15400
H1973       H  0.95467437  0.20698255  0.15770489     0.15100
N1974       N  0.96092972  0.22630332  0.10129857     0.74200
O1975       O  0.89579054  0.03080224  0.14834478    -0.39200
O1976       O  0.95313697  0.01680700  0.15587314    -0.39200
O1977       O  0.93846142  0.26009103  0.10357075    -0.39900
O1978       O  0.98968775  0.23220718  0.08688041    -0.39900
C1979       C  0.78628211  0.27196455  0.94819313    -0.12200
C1980       C  0.79077548  0.23076551  0.96524173     0.04800
C1981       C  0.76031999  0.20159455  0.97078104    -0.07500
C1982       C  0.72585164  0.21723243  0.96285323    -0.08300
C1983       C  0.72110619  0.26271998  0.95088152    -0.02800
C1984       C  0.75164582  0.28833703  0.94113822     0.04000
N1985       N  0.74779963  0.33376748  0.92729139     0.66500
H1986       H  0.80936586  0.29397316  0.94253318     0.15400
H1987       H  0.70260743  0.19707794  0.97043971     0.15100
N1988       N  0.76314478  0.15973029  0.98823354     0.74200
O1989       O  0.75243826  0.37151091  0.94197291    -0.39200
O1990       O  0.74772693  0.33592417  0.89979118    -0.39200
O1991       O  0.76271540  0.16386275  0.01565987    -0.39900
O1992       O  0.77223825  0.12055041  0.97668997    -0.39900
C1993       C  0.92372870  0.10947730  0.88436721    -0.12200
C1994       C  0.89749105  0.11500769  0.90607407     0.04800
C1995       C  0.86043864  0.11360079  0.89789983    -0.07500
C1996       C  0.85051147  0.11328529  0.86831529    -0.08300
C1997       C  0.87695928  0.11487503  0.84657613    -0.02800
C1998       C  0.91381383  0.10985418  0.85476377     0.04000
N1999       N  0.94185955  0.11229331  0.83340665     0.66500
H2000       H  0.95223309  0.11101259  0.89013700     0.15400
H2001       H  0.82217710  0.11742230  0.86248294     0.15100
N2002       N  0.83259247  0.11794855  0.91934921     0.74200
O2003       O  0.95825436  0.15131041  0.82986057    -0.39200
O2004       O  0.95656499  0.07416948  0.82469909    -0.39200
O2005       O  0.81337486  0.15520489  0.91998244    -0.39900
O2006       O  0.82173766  0.08100710  0.93235437    -0.39900
C2007       C  0.83529112  0.00857156  0.99028674    -0.12200
C2008       C  0.83976600  0.03523945  0.01610145     0.04800
C2009       C  0.81535876  0.02688410  0.03943594    -0.07500
C2010       C  0.78525071  0.99647628  0.03543618    -0.08300
C2011       C  0.77895572  0.97355889  0.00861138    -0.02800
C2012       C  0.80512683  0.97848018  0.98629030     0.04000
N2013       N  0.80028492  0.95525827  0.95871356     0.66500
H2014       H  0.85367937  0.01391802  0.97216064     0.15400
H2015       H  0.76543612  0.99324917  0.05276995     0.15100
N2016       N  0.82011608  0.05040262  0.06698660     0.74200
O2017       O  0.78337388  0.97631931  0.93855754    -0.39200
O2018       O  0.81858533  0.91840093  0.95280600    -0.39200
O2019       O  0.79490819  0.07545244  0.07761267    -0.39900
O2020       O  0.84979915  0.04687394  0.08053558    -0.39900
C2021       C  0.02401338  0.27342523  0.96007794    -0.12200
C2022       C  0.02227186  0.23341179  0.97868510     0.04800
C2023       C  0.05165561  0.22605627  0.99814010    -0.07500
C2024       C  0.08026491  0.25966707  0.99971856    -0.08300
C2025       C  0.08014543  0.30111742  0.98244105    -0.02800
C2026       C  0.05199663  0.30705908  0.96206011     0.04000
N2027       N  0.05023935  0.34884163  0.94432503     0.66500
H2028       H  0.00239032  0.28045324  0.94463322     0.15400
H2029       H  0.10147514  0.25482560  0.01585119     0.15100
N2030       N  0.05211585  0.18617417  0.01745581     0.74200
O2031       O  0.06610836  0.34931141  0.91994502    -0.39200
O2032       O  0.02734838  0.38088548  0.95027861    -0.39200
O2033       O  0.07140489  0.15030659  0.01133339    -0.39900
O2034       O  0.03932376  0.19058893  0.04284749    -0.39900
C2035       C  0.86271253  0.36308111  0.03105622    -0.12200
C2036       C  0.89656853  0.34020938  0.03042676     0.04800
C2037       C  0.92836264  0.36772856  0.03329789    -0.07500
C2038       C  0.92607791  0.41765855  0.03356936    -0.08300
C2039       C  0.89241324  0.44047707  0.03072911    -0.02800
C2040       C  0.86038053  0.41298801  0.03126813     0.04000
N2041       N  0.82549149  0.43545657  0.03011512     0.66500
H2042       H  0.83804026  0.34228417  0.02919409     0.15400
H2043       H  0.95085040  0.43845098  0.03339410     0.15100
N2044       N  0.96318523  0.34545046  0.03444917     0.74200
O2045       O  0.80368623  0.42551146  0.00974160    -0.39200
O2046       O  0.81714482  0.46710904  0.04860843    -0.39200
O2047       O  0.98288220  0.34440310  0.01195862    -0.39900
O2048       O  0.97661994  0.33452177  0.05886154    -0.39900
loop_ 
_geom_bond_atom_site_label_1 
_geom_bond_atom_site_label_2 
_geom_bond_distance 
_geom_bond_site_symmetry_2 
_ccdc_geom_bond_type 
Fe1          O17   2.050   1_556  S
Fe1           O7   2.064       .  S
Fe1          O14   2.063       .  S
Fe1           O6   2.030       .  S
Fe1          O12   1.940       .  S
Fe2           O5   2.045       .  S
Fe2           O9   2.097       .  S
Fe2          O13   2.044   1_554  S
Fe2          O18   2.086       .  S
Fe2          O12   1.928   1_554  S
Fe3          O21   2.120   1_556  S
Fe3           O8   2.089   1_556  S
Fe3          O15   2.113       .  S
Fe3           O4   2.134       .  S
Fe3          O12   1.941       .  S
O4           C11   1.285       .  A
O5           C19   1.269       .  A
O6           C11   1.265       .  A
O7           C10   1.266       .  A
O8           C20   1.274       .  A
O9           C22   1.276       .  A
C10          O15   1.275       .  A
C10        C2022   1.509   1_655  S
C11        C1994   1.483       .  S
O13          C16   1.264       .  A
O14          C16   1.265       .  A
C16        C1980   1.479       .  S
O17          C22   1.270       .  A
O18          C20   1.273       .  A
C19          O21   1.282       .  A
C19        C1966   1.482       .  S
C20        C2008   1.501       .  S
C22        C2036   1.474       .  S
Fe23         O39   2.047       .  S
Fe23         O29   2.078       .  S
Fe23         O36   2.074       .  S
Fe23         O28   2.028       .  S
Fe23         O34   1.951       .  S
Fe24         O27   2.046       .  S
Fe24         O31   2.096       .  S
Fe24         O35   2.048       .  S
Fe24         O40   2.090       .  S
Fe24         O34   1.941       .  S
Fe25         O43   2.117       .  S
Fe25         O30   2.076       .  S
Fe25         O37   2.093       .  S
Fe25         O26   2.127       .  S
Fe25         O34   1.945       .  S
O26          C33   1.283       .  A
O27          C41   1.269       .  A
O28          C33   1.265       .  A
O29          C32   1.267       .  A
O30          C42   1.271       .  A
O31          C44   1.275       .  A
C32          O37   1.273       .  A
C32        C1910   1.494       .  S
C33        C1997   1.480       .  S
O35          C38   1.267       .  A
O36          C38   1.268       .  A
C38        C1955   1.476       .  S
O39          C44   1.268       .  A
O40          C42   1.272       .  A
C41          O43   1.282       .  A
C41        C1896   1.487       .  S
C42        C1938   1.495       .  S
C44        C1927   1.476       .  S
Fe45         O61   2.044   1_556  S
Fe45         O51   2.055       .  S
Fe45         O58   2.088       .  S
Fe45         O50   2.018       .  S
Fe45         O56   1.941       .  S
Fe46         O49   2.009       .  S
Fe46         O53   2.125       .  S
Fe46         O57   2.031   1_554  S
Fe46         O62   2.075       .  S
Fe46         O56   1.925   1_554  S
Fe47         O65   2.133       .  S
Fe47         O52   2.082   1_554  S
Fe47         O59   2.099       .  S
Fe47         O48   2.134   1_554  S
Fe47         O56   1.940   1_554  S
O48          C55   1.288       .  A
O49          C63   1.263       .  A
O50          C55   1.269       .  A
O51          C54   1.265   1_556  A
O52          C64   1.270       .  A
O53          C66   1.281       .  A
C54          O59   1.274       .  A
C54        C1857   1.482       .  S
C55        C1826   1.487       .  S
O57          C60   1.256       .  A
O58          C60   1.268       .  A
C60        C1983   1.463       .  S
O61          C66   1.268       .  A
O62          C64   1.269   1_554  A
C63          O65   1.287       .  A
C63        C1843   1.478       .  S
C64        C1885   1.479       .  S
C66        C1868   1.491       .  S
Fe67         O83   2.045       .  S
Fe67         O73   2.060       .  S
Fe67         O80   2.084       .  S
Fe67         O72   2.021       .  S
Fe67         O78   1.945       .  S
Fe68         O71   2.020       .  S
Fe68         O75   2.107       .  S
Fe68         O79   2.042       .  S
Fe68         O84   2.065       .  S
Fe68         O78   1.923       .  S
Fe69         O87   2.117       .  S
Fe69         O74   2.107       .  S
Fe69         O81   2.106       .  S
Fe69         O70   2.118       .  S
Fe69         O78   1.947       .  S
O70          C77   1.282       .  A
O71          C85   1.265       .  A
O72          C77   1.267       .  A
O73          C76   1.266       .  A
O74          C86   1.277       .  A
O75          C88   1.278       .  A
C76          O81   1.277       .  A
C76        C1784   1.484       .  S
C77        C1759   1.480       .  S
O79          C82   1.261       .  A
O80          C82   1.268       .  A
C82        C1812   1.461       .  S
O83          C88   1.268       .  A
O84          C86   1.269       .  A
C85          O87   1.280       .  A
C85        C1840   1.468       .  S
C86        C1770   1.508       .  S
C88        C1798   1.488       .  S
Fe89        O105   2.042       .  S
Fe89         O95   2.075       .  S
Fe89        O102   2.072       .  S
Fe89         O94   2.022       .  S
Fe89        O100   1.936       .  S
Fe90         O93   2.041       .  S
Fe90         O97   2.106       .  S
Fe90        O101   2.035       .  S
Fe90        O106   2.095       .  S
Fe90        O100   1.923       .  S
Fe91        O109   2.131       .  S
Fe91         O96   2.081       .  S
Fe91        O103   2.112       .  S
Fe91         O92   2.139       .  S
Fe91        O100   1.936       .  S
O92          C99   1.286       .  A
O93         C107   1.267       .  A
O94          C99   1.262       .  A
O95          C98   1.268       .  A
O96         C108   1.273       .  A
O97         C110   1.277       .  A
C98         O103   1.277       .  A
C98        C1700   1.513       .  S
C99        C1742   1.487       .  S
O101        C104   1.263       .  A
O102        C104   1.269       .  A
C104       C1815   1.479       .  S
O105        C110   1.267       .  A
O106        C108   1.276       .  A
C107        O109   1.284       .  A
C107       C1686   1.484       .  S
C108       C1731   1.501       .  S
C110       C1714   1.475       .  S
Fe111       O127   2.051       .  S
Fe111       O117   2.076       .  S
Fe111       O124   2.072       .  S
Fe111       O116   2.031       .  S
Fe111       O122   1.950       .  S
Fe112       O115   2.047       .  S
Fe112       O119   2.097       .  S
Fe112       O123   2.048       .  S
Fe112       O128   2.078       .  S
Fe112       O122   1.947       .  S
Fe113       O131   2.110       .  S
Fe113       O118   2.079       .  S
Fe113       O125   2.095       .  S
Fe113       O114   2.122       .  S
Fe113       O122   1.952       .  S
O114        C121   1.281       .  A
O115        C129   1.271       .  A
O116        C121   1.264       .  A
O117        C120   1.269       .  A
O118        C130   1.270       .  A
O119        C132   1.273       .  A
C120        O125   1.273       .  A
C120       C1644   1.499       .  S
C121       C1745   1.481       .  S
O123        C126   1.265       .  A
O124        C126   1.271       .  A
C126       C1675   1.475       .  S
O127        C132   1.266       .  A
O128        C130   1.270       .  A
C129        O131   1.282       .  A
C129       C1616   1.485       .  S
C130       C1630   1.496       .  S
C132       C1658   1.480       .  S
Fe133       O149   2.046       .  S
Fe133       O139   2.052       .  S
Fe133       O146   2.089       .  S
Fe133       O138   2.026       .  S
Fe133       O144   1.950       .  S
Fe134       O137   2.017       .  S
Fe134       O141   2.117       .  S
Fe134       O145   2.033       .  S
Fe134       O150   2.085       .  S
Fe134       O144   1.937       .  S
Fe135       O153   2.120       .  S
Fe135       O140   2.088       .  S
Fe135       O147   2.105       .  S
Fe135       O136   2.123       .  S
Fe135       O144   1.952       .  S
O136        C143   1.285       .  A
O137        C151   1.265       .  A
O138        C143   1.269       .  A
O139        C142   1.264       .  A
O140        C152   1.272       .  A
O141        C154   1.279       .  A
C142        O147   1.274       .  A
C142       C1574   1.483       .  S
C143       C1546   1.488       .  S
O145        C148   1.261       .  A
O146        C148   1.268       .  A
C148       C1952   1.470       .  S
O149        C154   1.267       .  A
O150        C152   1.271       .  A
C151        O153   1.283       .  A
C151       C1602   1.479       .  S
C152       C1563   1.487       .  S
C154       C1588   1.488       .  S
Fe155       O171   2.035       .  S
Fe155       O161   2.055       .  S
Fe155       O168   2.084       .  S
Fe155       O160   2.013       .  S
Fe155       O166   1.945       .  S
Fe156       O159   2.016       .  S
Fe156       O163   2.113       .  S
Fe156       O167   2.037       .  S
Fe156       O172   2.072       .  S
Fe156       O166   1.937       .  S
Fe157       O175   2.123       .  S
Fe157       O162   2.097       .  S
Fe157       O169   2.101       .  S
Fe157       O158   2.130       .  S
Fe157       O166   1.943       .  S
O158        C165   1.287       .  A
O159        C173   1.265       .  A
O160        C165   1.267       .  A
O161        C164   1.263       .  A
O162        C174   1.273       .  A
O163        C176   1.279       .  A
C164        O169   1.272       .  A
C164       C1504   1.481       .  S
C165       C1493   1.490       .  S
O167        C170   1.261       .  A
O168        C170   1.268       .  A
C170       C1672   1.469       .  S
O171        C176   1.266       .  A
O172        C174   1.269       .  A
C173        O175   1.285       .  A
C173       C1605   1.472       .  S
C174       C1535   1.487       .  S
C176       C1521   1.486       .  S
Fe177       O193   2.035       .  S
Fe177       O183   2.055       .  S
Fe177       O190   2.092       .  S
Fe177       O182   2.017       .  S
Fe177       O188   1.941       .  S
Fe178       O181   2.013       .  S
Fe178       O185   2.112       .  S
Fe178       O189   2.035       .  S
Fe178       O194   2.079       .  S
Fe178       O188   1.932       .  S
Fe179       O197   2.133       .  S
Fe179       O184   2.098       .  S
Fe179       O191   2.111       .  S
Fe179       O180   2.126       .  S
Fe179       O188   1.945       .  S
O180        C187   1.286       .  A
O181        C195   1.264       .  A
O182        C187   1.268       .  A
O183        C186   1.265       .  A
O184        C196   1.274       .  A
O185        C198   1.279       .  A
C186        O191   1.275       .  A
C186       C1420   1.488       .  S
C187       C1406   1.486       .  S
O189        C192   1.261       .  A
O190        C192   1.269       .  A
C192       C1448   1.469       .  S
O193        C198   1.265       .  A
O194        C196   1.270       .  A
C195        O197   1.286       .  A
C195       C1462   1.480       .  S
C196       C1479   1.490       .  S
C198       C1434   1.484       .  S
Fe199       O215   2.044       .  S
Fe199       O205   2.044       .  S
Fe199       O212   2.068       .  S
Fe199       O204   2.028       .  S
Fe199       O210   1.956       .  S
Fe200       O203   2.033       .  S
Fe200       O207   2.122       .  S
Fe200       O211   2.040       .  S
Fe200       O216   2.076       .  S
Fe200       O210   1.942       .  S
Fe201       O219   2.114       .  S
Fe201       O206   2.098       .  S
Fe201       O213   2.108       .  S
Fe201       O202   2.121       .  S
Fe201       O210   1.948       .  S
O202        C209   1.286       .  A
O203        C217   1.268       .  A
O204        C209   1.268       .  A
O205        C208   1.260       .  A
O206        C218   1.275       .  A
O207        C220   1.282       .  A
C208        O213   1.274       .  A
C208       C1378   1.482       .  S
C209       C1336   1.485       .  S
O211        C214   1.261       .  A
O212        C214   1.262       .  A
C214       C1364   1.467       .  S
O215        C220   1.268       .  A
O216        C218   1.270       .  A
C217        O219   1.281       .  A
C217       C1465   1.476       .  S
C218       C1350   1.488       .  S
C220       C1392   1.489       .  S
Fe221       O237   2.041       .  S
Fe221       O227   2.076       .  S
Fe221       O234   2.068       .  S
Fe221       O226   2.029       .  S
Fe221       O232   1.942       .  S
Fe222       O225   2.033       .  S
Fe222       O229   2.110       .  S
Fe222       O233   2.044   1_554  S
Fe222       O238   2.095       .  S
Fe222       O232   1.933   1_554  S
Fe223       O241   2.124   1_556  S
Fe223       O228   2.066       .  S
Fe223       O235   2.093       .  S
Fe223       O224   2.147       .  S
Fe223       O232   1.940       .  S
O224        C231   1.288       .  A
O225        C239   1.265       .  A
O226        C231   1.265       .  A
O227        C230   1.267       .  A
O228        C240   1.271   1_556  A
O229        C242   1.279       .  A
C230        O235   1.272       .  A
C230       C1308   1.501       .  S
C231       C1294   1.492       .  S
O233        C236   1.264       .  A
O234        C236   1.267       .  A
C236       C1283   1.470       .  S
O237        C242   1.268   1_556  A
O238        C240   1.275       .  A
C239        O241   1.283       .  A
C239       C1252   1.484       .  S
C240       C1266   1.493       .  S
C242       C1322   1.484       .  S
Fe243       O259   2.045       .  S
Fe243       O249   2.083       .  S
Fe243       O256   2.077       .  S
Fe243       O248   2.028       .  S
Fe243       O254   1.948       .  S
Fe244       O247   2.043       .  S
Fe244       O251   2.096       .  S
Fe244       O255   2.046       .  S
Fe244       O260   2.086       .  S
Fe244       O254   1.947       .  S
Fe245       O263   2.125       .  S
Fe245       O250   2.076       .  S
Fe245       O257   2.095       .  S
Fe245       O246   2.136       .  S
Fe245       O254   1.943       .  S
O246        C253   1.284       .  A
O247        C261   1.268       .  A
O248        C253   1.263       .  A
O249        C252   1.270       .  A
O250        C262   1.271       .  A
O251        C264   1.273       .  A
C252        O257   1.274       .  A
C252       C1224   1.496       .  S
C253       C1297   1.485       .  S
O255        C258   1.265       .  A
O256        C258   1.273       .  A
C258       C1451   1.477       .  S
O259        C264   1.265       .  A
O260        C262   1.270       .  A
C261        O263   1.285       .  A
C261       C1196   1.489       .  S
C262       C1210   1.493       .  S
C264       C1238   1.476       .  S
Fe265       O281   2.037   1_556  S
Fe265       O271   2.057       .  S
Fe265       O278   2.091       .  S
Fe265       O270   2.022       .  S
Fe265       O276   1.944   1_556  S
Fe266       O269   2.017       .  S
Fe266       O273   2.121       .  S
Fe266       O277   2.025   1_554  S
Fe266       O282   2.085       .  S
Fe266       O276   1.932       .  S
Fe267       O285   2.122       .  S
Fe267       O272   2.089   1_554  S
Fe267       O279   2.100       .  S
Fe267       O268   2.128   1_554  S
Fe267       O276   1.939       .  S
O268        C275   1.286       .  A
O269        C283   1.266       .  A
O270        C275   1.265       .  A
O271        C274   1.265   1_556  A
O272        C284   1.273   1_556  A
O273        C286   1.279       .  A
C274        O279   1.274       .  A
C274       C1140   1.479   1_455  S
C275       C1126   1.490       .  S
O277        C280   1.262       .  A
O278        C280   1.270       .  A
C280       C1280   1.470       .  S
O281        C286   1.265       .  A
O282        C284   1.271       .  A
C283        O285   1.283       .  A
C283       C1168   1.470       .  S
C284       C1185   1.487   1_554  S
C286       C1157   1.490       .  S
Fe287       O303   2.029       .  S
Fe287       O293   2.051       .  S
Fe287       O300   2.078       .  S
Fe287       O292   2.007       .  S
Fe287       O298   1.943       .  S
Fe288       O291   2.011       .  S
Fe288       O295   2.127       .  S
Fe288       O299   2.038       .  S
Fe288       O304   2.087       .  S
Fe288       O298   1.926       .  S
Fe289       O307   2.128       .  S
Fe289       O294   2.094       .  S
Fe289       O301   2.107       .  S
Fe289       O290   2.141       .  S
Fe289       O298   1.935       .  S
O290        C297   1.292       .  A
O291        C305   1.263       .  A
O292        C297   1.265       .  A
O293        C296   1.260       .  A
O294        C306   1.274       .  A
O295        C308   1.283       .  A
C296        O301   1.273       .  A
C296       C1098   1.482       .  S
C297       C1056   1.487       .  S
O299        C302   1.261       .  A
O300        C302   1.264       .  A
C302       C1084   1.470       .  S
O303        C308   1.266       .  A
O304        C306   1.272       .  A
C305        O307   1.286       .  A
C305       C1171   1.479       .  S
C306       C1070   1.490       .  S
C308       C1112   1.488       .  S
Fe309       O325   2.057       .  S
Fe309       O315   2.075       .  S
Fe309       O322   2.070       .  S
Fe309       O314   2.038       .  S
Fe309       O320   1.951       .  S
Fe310       O313   2.051       .  S
Fe310       O317   2.098       .  S
Fe310       O321   2.051       .  S
Fe310       O326   2.089       .  S
Fe310       O320   1.935       .  S
Fe311       O329   2.120       .  S
Fe311       O316   2.077       .  S
Fe311       O323   2.095       .  S
Fe311       O312   2.131       .  S
Fe311       O320   1.951       .  S
O312        C319   1.283       .  A
O313        C327   1.269       .  A
O314        C319   1.265       .  A
O315        C318   1.269       .  A
O316        C328   1.269       .  A
O317        C330   1.275       .  A
C318        O323   1.273       .  A
C318       C1000   1.502       .  S
C319       C1028   1.488       .  S
O321        C324   1.268       .  A
O322        C324   1.267       .  A
C324       C1087   1.477       .  S
O325        C330   1.269       .  A
O326        C328   1.274       .  A
C327        O329   1.283       .  A
C327        C986   1.487       .  S
C328       C1045   1.499       .  S
C330       C1014   1.486       .  S
Fe331       O347   2.045       .  S
Fe331       O337   2.080       .  S
Fe331       O344   2.070       .  S
Fe331       O336   2.028       .  S
Fe331       O342   1.949       .  S
Fe332       O335   2.051       .  S
Fe332       O339   2.101       .  S
Fe332       O343   2.051       .  S
Fe332       O348   2.090       .  S
Fe332       O342   1.938       .  S
Fe333       O351   2.120       .  S
Fe333       O338   2.075       .  S
Fe333       O345   2.098       .  S
Fe333       O334   2.136       .  S
Fe333       O342   1.943       .  S
O334        C341   1.284       .  A
O335        C349   1.271       .  A
O336        C341   1.264       .  A
O337        C340   1.267       .  A
O338        C350   1.271       .  A
O339        C352   1.276       .  A
C340        O345   1.273       .  A
C340        C944   1.496   1_655  S
C341       C1031   1.486       .  S
O343        C346   1.268       .  A
O344        C346   1.267       .  A
C346       C1367   1.478       .  S
O347        C352   1.268       .  A
O348        C350   1.272       .  A
C349        O351   1.282       .  A
C349        C930   1.490       .  S
C350        C972   1.494       .  S
C352        C958   1.477       .  S
Fe353       O369   2.051       .  S
Fe353       O359   2.070       .  S
Fe353       O366   2.064       .  S
Fe353       O358   2.035       .  S
Fe353       O364   1.946       .  S
Fe354       O357   2.046       .  S
Fe354       O361   2.095       .  S
Fe354       O365   2.049       .  S
Fe354       O370   2.086       .  S
Fe354       O364   1.937       .  S
Fe355       O373   2.114       .  S
Fe355       O360   2.077       .  S
Fe355       O367   2.103       .  S
Fe355       O356   2.135       .  S
Fe355       O364   1.945       .  S
O356        C363   1.284       .  A
O357        C371   1.269       .  A
O358        C363   1.266       .  A
O359        C362   1.268       .  A
O360        C372   1.272       .  A
O361        C374   1.274   1_545  A
C362        O367   1.273       .  A
C362       C1353   1.506       .  S
C363        C916   1.491       .  S
O365        C368   1.267       .  A
O366        C368   1.266       .  A
C368        C905   1.474       .  S
O369        C374   1.270   1_545  A
O370        C372   1.271       .  A
C371        O373   1.282       .  A
C371       C1899   1.483       .  S
C372       C1507   1.496       .  S
C374        C961   1.479       .  S
Fe375       O391   2.049       .  S
Fe375       O381   2.063       .  S
Fe375       O388   2.059       .  S
Fe375       O380   2.024       .  S
Fe375       O386   1.949       .  S
Fe376       O379   2.044       .  S
Fe376       O383   2.108       .  S
Fe376       O387   2.056       .  S
Fe376       O392   2.087       .  S
Fe376       O386   1.948       .  S
Fe377       O395   2.127       .  S
Fe377       O382   2.083       .  S
Fe377       O389   2.108       .  S
Fe377       O378   2.135       .  S
Fe377       O386   1.950       .  S
O378        C385   1.284       .  A
O379        C393   1.270       .  A
O380        C385   1.263       .  A
O381        C384   1.265       .  A
O382        C394   1.271       .  A
O383        C396   1.277   1_545  A
C384        O389   1.276       .  A
C384       C1073   1.504   1_655  S
C385        C919   1.481       .  S
O387        C390   1.265       .  A
O388        C390   1.268       .  A
C390        C888   1.475       .  S
O391        C396   1.267   1_545  A
O392        C394   1.271       .  A
C393        O395   1.285       .  A
C393       C1969   1.493       .  S
C394       C1787   1.495       .  S
C396       C1017   1.484       .  S
Fe397       O413   2.035   1_565  S
Fe397       O403   2.058       .  S
Fe397       O410   2.082   1_565  S
Fe397       O402   2.027       .  S
Fe397       O408   1.955       .  S
Fe398       O401   2.025       .  S
Fe398       O405   2.110   1_565  S
Fe398       O409   2.037       .  S
Fe398       O414   2.070       .  S
Fe398       O408   1.940       .  S
Fe399       O417   2.127       .  S
Fe399       O404   2.103       .  S
Fe399       O411   2.106       .  S
Fe399       O400   2.130       .  S
Fe399       O408   1.944       .  S
O400        C407   1.287       .  A
O401        C415   1.265       .  A
O402        C407   1.267       .  A
O403        C406   1.263       .  A
O404        C416   1.276       .  A
O405        C418   1.279       .  A
C406        O411   1.274       .  A
C406       C1941   1.484       .  S
C407       C1129   1.487       .  S
O409        C412   1.261       .  A
O410        C412   1.267   1_545  A
C412        C863   1.467   1_565  S
O413        C418   1.266       .  A
O414        C416   1.270       .  A
C415        O417   1.284       .  A
C415        C874   1.477       .  S
C416       C1227   1.490       .  S
C418       C1591   1.485       .  S
Fe419       O435   2.038   1_565  S
Fe419       O425   2.046       .  S
Fe419       O432   2.073   1_565  S
Fe419       O424   2.012       .  S
Fe419       O430   1.946       .  S
Fe420       O423   2.019       .  S
Fe420       O427   2.117   1_565  S
Fe420       O431   2.039       .  S
Fe420       O436   2.090       .  S
Fe420       O430   1.928       .  S
Fe421       O439   2.137       .  S
Fe421       O426   2.103       .  S
Fe421       O433   2.112       .  S
Fe421       O422   2.132       .  S
Fe421       O430   1.936       .  S
O422        C429   1.288       .  A
O423        C437   1.265       .  A
O424        C429   1.265       .  A
O425        C428   1.261       .  A
O426        C438   1.276       .  A
O427        C440   1.280       .  A
C428        O433   1.277       .  A
C428       C1633   1.481       .  S
C429       C1059   1.480       .  S
O431        C434   1.263   1_565  A
O432        C434   1.265       .  A
C434        C902   1.466       .  S
O435        C440   1.266       .  A
O436        C438   1.273       .  A
C437        O439   1.287       .  A
C437        C877   1.487       .  S
C438        C947   1.500       .  S
C440       C1518   1.490       .  S
Fe441       O457   2.027   1_566  S
Fe441       O447   2.062       .  S
Fe441       O454   2.086   1_565  S
Fe441       O446   2.018       .  S
Fe441       O452   1.951       .  S
Fe442       O445   2.028       .  S
Fe442       O449   2.115   1_565  S
Fe442       O453   2.037   1_554  S
Fe442       O458   2.076       .  S
Fe442       O452   1.940   1_554  S
Fe443       O461   2.121       .  S
Fe443       O448   2.102   1_554  S
Fe443       O455   2.112       .  S
Fe443       O444   2.123   1_554  S
Fe443       O452   1.948   1_554  S
O444        C451   1.285       .  A
O445        C459   1.266       .  A
O446        C451   1.268       .  A
O447        C450   1.263   1_556  A
O448        C460   1.276       .  A
O449        C462   1.280       .  A
C450        O455   1.276       .  A
C450       C2011   1.490       .  S
C451       C1409   1.479       .  S
O453        C456   1.260   1_565  A
O454        C456   1.266       .  A
C456        C832   1.472       .  S
O457        C462   1.266       .  A
O458        C460   1.270   1_554  A
C459        O461   1.282       .  A
C459        C846   1.485       .  S
C460       C1311   1.489       .  S
C462       C1871   1.484       .  S
Fe463       O479   2.039   1_565  S
Fe463       O469   2.064       .  S
Fe463       O476   2.081   1_565  S
Fe463       O468   2.029       .  S
Fe463       O474   1.956       .  S
Fe464       O467   2.034       .  S
Fe464       O471   2.113   1_565  S
Fe464       O475   2.039       .  S
Fe464       O480   2.071       .  S
Fe464       O474   1.951       .  S
Fe465       O483   2.125       .  S
Fe465       O470   2.096       .  S
Fe465       O477   2.101       .  S
Fe465       O466   2.123       .  S
Fe465       O474   1.955       .  S
O466        C473   1.288       .  A
O467        C481   1.269       .  A
O468        C473   1.268       .  A
O469        C472   1.264       .  A
O470        C482   1.271       .  A
O471        C484   1.277       .  A
C472        O477   1.271       .  A
C472       C1728   1.488       .  S
C473       C1339   1.491       .  S
O475        C478   1.261   1_565  A
O476        C478   1.267       .  A
C478        C891   1.470       .  S
O479        C484   1.269       .  A
O480        C482   1.267       .  A
C481        O483   1.286       .  A
C481        C849   1.485       .  S
C482       C1003   1.489       .  S
C484       C1801   1.485       .  S
Fe485       O501   2.050   1_545  S
Fe485       O491   2.046       .  S
Fe485       O498   2.055       .  S
Fe485       O490   2.036       .  S
Fe485       O496   1.978       .  S
Fe486       O489   2.054       .  S
Fe486       O493   2.080       .  S
Fe486       O497   2.058   1_554  S
Fe486       O502   2.073       .  S
Fe486       O496   1.971   1_554  S
Fe487       O505   2.115   1_556  S
Fe487       O492   2.089   1_556  S
Fe487       O499   2.102       .  S
Fe487       O488   2.115       .  S
Fe487       O496   1.977       .  S
O488        C495   1.279       .  A
O489        C503   1.273       .  A
O490        C495   1.263       .  A
O491        C494   1.262       .  A
O492        C504   1.270       .  A
O493        C506   1.268   1_545  A
C494        O499   1.274       .  A
C494       C1182   1.488       .  S
C495        C818   1.481       .  S
O497        C500   1.271       .  A
O498        C500   1.266       .  A
C500        C835   1.473       .  S
O501        C506   1.265   1_556  A
O502        C504   1.266       .  A
C503        O505   1.282       .  A
C503       C1689   1.494       .  S
C504       C1854   1.495       .  S
C506       C1325   1.471       .  S
Fe507       O523   2.036       .  S
Fe507       O513   2.064       .  S
Fe507       O520   2.074       .  S
Fe507       O512   2.011       .  S
Fe507       O518   1.948       .  S
Fe508       O511   2.034       .  S
Fe508       O515   2.098       .  S
Fe508       O519   2.047       .  S
Fe508       O524   2.083       .  S
Fe508       O518   1.941       .  S
Fe509       O527   2.126       .  S
Fe509       O514   2.079       .  S
Fe509       O521   2.101       .  S
Fe509       O510   2.146       .  S
Fe509       O518   1.939       .  S
O510        C517   1.287       .  A
O511        C525   1.267       .  A
O512        C517   1.262       .  A
O513        C516   1.265       .  A
O514        C526   1.271       .  A
O515        C528   1.273   1_545  A
C516        O521   1.274       .  A
C516       C1476   1.494       .  S
C517        C821   1.484       .  S
O519        C522   1.266       .  A
O520        C522   1.271       .  A
C522        C860   1.475       .  S
O523        C528   1.264   1_545  A
O524        C526   1.270       .  A
C525        O527   1.286       .  A
C525       C1619   1.484       .  S
C526       C1577   1.493       .  S
C528       C1241   1.477       .  S
Fe529       O545   2.051   1_556  S
Fe529       O535   2.047       .  S
Fe529       O542   2.086       .  S
Fe529       O534   2.035       .  S
Fe529       O540   1.966       .  S
Fe530       O533   2.028       .  S
Fe530       O537   2.106       .  S
Fe530       O541   2.033   1_554  S
Fe530       O546   2.067   1_554  S
Fe530       O540   1.940   1_554  S
Fe531       O549   2.108   1_556  S
Fe531       O536   2.100       .  S
Fe531       O543   2.095   1_556  S
Fe531       O532   2.117       .  S
Fe531       O540   1.963       .  S
O532        C539   1.285       .  A
O533        C547   1.268       .  A
O534        C539   1.271       .  A
O535        C538   1.261       .  A
O536        C548   1.274       .  A
O537        C550   1.278       .  A
C538        O543   1.271   1_556  A
C538       C1269   1.476   1_556  S
C539       C1549   1.489       .  S
O541        C544   1.261       .  A
O542        C544   1.265       .  A
C544        C790   1.472       .  S
O545        C550   1.270       .  A
O546        C548   1.268       .  A
C547        O549   1.280       .  A
C547        C804   1.480       .  S
C548       C2025   1.491       .  S
C550       C1154   1.490       .  S
Fe551       O567   2.033       .  S
Fe551       O557   2.038       .  S
Fe551       O564   2.067       .  S
Fe551       O556   2.030       .  S
Fe551       O562   1.981       .  S
Fe552       O555   2.036       .  S
Fe552       O559   2.101       .  S
Fe552       O563   2.034       .  S
Fe552       O568   2.073       .  S
Fe552       O562   1.973       .  S
Fe553       O571   2.093       .  S
Fe553       O558   2.111       .  S
Fe553       O565   2.115       .  S
Fe553       O554   2.095       .  S
Fe553       O562   1.989       .  S
O554        C561   1.276       .  A
O555        C569   1.264       .  A
O556        C561   1.264       .  A
O557        C560   1.261       .  A
O558        C570   1.277       .  A
O559        C572   1.275       .  A
C560        O565   1.276       .  A
C560       C1042   1.481       .  S
C561       C1490   1.484       .  S
O563        C566   1.262       .  A
O564        C566   1.263       .  A
C566        C776   1.462       .  S
O567        C572   1.265       .  A
O568        C570   1.272       .  A
C569        O571   1.275       .  A
C569        C807   1.481       .  S
C570       C1703   1.496       .  S
C572       C1115   1.480       .  S
Fe573       O589   2.041       .  S
Fe573       O579   2.046       .  S
Fe573       O586   2.050       .  S
Fe573       O578   2.024       .  S
Fe573       O584   1.964   1_556  S
Fe574       O577   2.054       .  S
Fe574       O581   2.086       .  S
Fe574       O585   2.063   1_554  S
Fe574       O590   2.071       .  S
Fe574       O584   1.966       .  S
Fe575       O593   2.113       .  S
Fe575       O580   2.083       .  S
Fe575       O587   2.108   1_554  S
Fe575       O576   2.121   1_554  S
Fe575       O584   1.969       .  S
O576        C583   1.280       .  A
O577        C591   1.270       .  A
O578        C583   1.263       .  A
O579        C582   1.262       .  A
O580        C592   1.270       .  A
O581        C594   1.271       .  A
C582        O587   1.275       .  A
C582       C1882   1.496       .  S
C583        C762   1.478       .  S
O585        C588   1.268       .  A
O586        C588   1.264       .  A
C588        C793   1.475       .  S
O589        C594   1.266   1_556  A
O590        C592   1.268       .  A
C591        O593   1.282       .  A
C591        C989   1.489       .  S
C592       C1143   1.493       .  S
C594       C2039   1.473       .  S
Fe595       O611   2.041       .  S
Fe595       O601   2.064       .  S
Fe595       O608   2.071       .  S
Fe595       O600   2.016       .  S
Fe595       O606   1.951       .  S
Fe596       O599   2.044       .  S
Fe596       O603   2.106       .  S
Fe596       O607   2.051       .  S
Fe596       O612   2.093       .  S
Fe596       O606   1.935       .  S
Fe597       O615   2.125       .  S
Fe597       O602   2.086       .  S
Fe597       O609   2.104       .  S
Fe597       O598   2.139       .  S
Fe597       O606   1.945       .  S
O598        C605   1.285       .  A
O599        C613   1.269       .  A
O600        C605   1.264       .  A
O601        C604   1.264       .  A
O602        C614   1.273       .  A
O603        C616   1.278       .  A
C604        O609   1.275       .  A
C604       C1560   1.504   1_655  S
C605        C765   1.481       .  S
O607        C610   1.267       .  A
O608        C610   1.267       .  A
C610        C748   1.477       .  S
O611        C616   1.266       .  A
O612        C614   1.274       .  A
C613        O615   1.283       .  A
C613        C933   1.489       .  S
C614       C1423   1.497       .  S
C616       C1924   1.479       .  S
Fe617       O633   2.036       .  S
Fe617       O623   2.056       .  S
Fe617       O630   2.094       .  S
Fe617       O622   2.016       .  S
Fe617       O628   1.942       .  S
Fe618       O621   2.002       .  S
Fe618       O625   2.102       .  S
Fe618       O629   2.034       .  S
Fe618       O634   2.085       .  S
Fe618       O628   1.922       .  S
Fe619       O637   2.134       .  S
Fe619       O624   2.093       .  S
Fe619       O631   2.103       .  S
Fe619       O620   2.129       .  S
Fe619       O628   1.937       .  S
O620        C627   1.287       .  A
O621        C635   1.259       .  A
O622        C627   1.268       .  A
O623        C626   1.264       .  A
O624        C636   1.274       .  A
O625        C638   1.278       .  A
C626        O631   1.275       .  A
C626       C1213   1.481       .  S
C627       C1829   1.483       .  S
O629        C632   1.262       .  A
O630        C632   1.270       .  A
C632        C751   1.472       .  S
O633        C638   1.265       .  A
O634        C636   1.271       .  A
C635        O637   1.285       .  A
C635        C734   1.482       .  S
C636       C1913   1.489       .  S
C638       C1437   1.480       .  S
Fe639       O655   2.035       .  S
Fe639       O645   2.063       .  S
Fe639       O652   2.087       .  S
Fe639       O644   2.017       .  S
Fe639       O650   1.943       .  S
Fe640       O643   2.019       .  S
Fe640       O647   2.123       .  S
Fe640       O651   2.036       .  S
Fe640       O656   2.084       .  S
Fe640       O650   1.937       .  S
Fe641       O659   2.110       .  S
Fe641       O646   2.087       .  S
Fe641       O653   2.095       .  S
Fe641       O642   2.119       .  S
Fe641       O650   1.945       .  S
O642        C649   1.282       .  A
O643        C657   1.265       .  A
O644        C649   1.266       .  A
O645        C648   1.266       .  A
O646        C658   1.274       .  A
O647        C660   1.281       .  A
C648        O653   1.274       .  A
C648        C975   1.480       .  S
C649       C1756   1.483       .  S
O651        C654   1.261       .  A
O652        C654   1.270       .  A
C654        C723   1.471       .  S
O655        C660   1.264       .  A
O656        C658   1.272       .  A
C657        O659   1.279       .  A
C657        C737   1.463       .  S
C658       C1647   1.485       .  S
C660       C1395   1.488       .  S
Fe661       O677   2.053       .  S
Fe661       O667   2.066       .  S
Fe661       O674   2.067       .  S
Fe661       O666   2.023       .  S
Fe661       O672   1.951       .  S
Fe662       O665   2.045       .  S
Fe662       O669   2.096       .  S
Fe662       O673   2.054       .  S
Fe662       O678   2.085       .  S
Fe662       O672   1.941       .  S
Fe663       O681   2.119       .  S
Fe663       O668   2.076       .  S
Fe663       O675   2.096       .  S
Fe663       O664   2.135       .  S
Fe663       O672   1.944       .  S
O664        C671   1.283       .  A
O665        C679   1.268       .  A
O666        C671   1.264       .  A
O667        C670   1.266       .  A
O668        C680   1.271       .  A
O669        C682   1.275       .  A
C670        O675   1.274       .  A
C670       C1532   1.493       .  S
C671        C706   1.483       .  S
O673        C676   1.266       .  A
O674        C676   1.269       .  A
C676        C720   1.470       .  S
O677        C682   1.268       .  A
O678        C680   1.270       .  A
C679        O681   1.283       .  A
C679       C1199   1.487       .  S
C680       C1381   1.490       .  S
C682       C1661   1.485       .  S
Fe683       O699   2.056       .  S
Fe683       O689   2.067       .  S
Fe683       O696   2.068       .  S
Fe683       O688   2.036       .  S
Fe683       O694   1.955       .  S
Fe684       O687   2.062       .  S
Fe684       O691   2.087       .  S
Fe684       O695   2.066       .  S
Fe684       O700   2.080       .  S
Fe684       O694   1.958       .  S
Fe685       O703   2.100       .  S
Fe685       O690   2.082       .  S
Fe685       O697   2.101       .  S
Fe685       O686   2.117       .  S
Fe685       O694   1.964       .  S
O686        C693   1.278       .  A
O687        C701   1.271       .  A
O688        C693   1.265       .  A
O689        C692   1.268       .  A
O690        C702   1.272       .  A
O691        C704   1.270       .  A
C692        O697   1.273       .  A
C692       C1773   1.489       .  S
C693        C709   1.481       .  S
O695        C698   1.271       .  A
O696        C698   1.268       .  A
C698        C779   1.481       .  S
O699        C704   1.269       .  A
O700        C702   1.269       .  A
C701        O703   1.279       .  A
C701       C1255   1.486       .  S
C702       C1101   1.494       .  S
C704       C1717   1.482       .  S
C705        C706   1.410       .  A
C705        C710   1.405       .  A
C705        H712   1.086       .  S
C706        C707   1.407       .  A
C707        C708   1.407       .  A
C707        N714   1.428       .  S
C708        C709   1.409       .  A
C708        H713   1.085       .  S
C709        C710   1.406       .  A
C710        N711   1.428       .  S
N711        O715   1.262       .  A
N711        O716   1.262       .  A
N714        O718   1.262       .  A
N714        O717   1.262       .  A
C719        C720   1.398       .  A
C719        C724   1.391       .  A
C719        H726   1.085       .  S
C720        C721   1.409       .  A
C721        C722   1.399       .  A
C721        N728   1.429       .  S
C722        C723   1.404       .  A
C722        H727   1.085       .  S
C723        C724   1.413       .  A
C724        N725   1.429       .  S
N725        O729   1.262       .  A
N725        O730   1.262       .  A
N728        O732   1.262       .  A
N728        O731   1.260       .  A
C733        C734   1.399       .  A
C733        C738   1.402       .  A
C733        H740   1.085       .  S
C734        C735   1.428       .  A
C735        C736   1.395       .  A
C735        N742   1.433       .  S
C736        C737   1.390       .  A
C736        H741   1.086       .  S
C737        C738   1.413       .  A
C738        N739   1.429       .  S
N739        O743   1.262       .  A
N739        O744   1.262       .  A
N742        O746   1.263       .  A
N742        O745   1.261       .  A
C747        C748   1.405       .  A
C747        C752   1.397       .  A
C747        H754   1.085       .  S
C748        C749   1.414       .  A
C749        C750   1.395       .  A
C749        N756   1.429       .  S
C750        C751   1.403       .  A
C750        H755   1.086       .  S
C751        C752   1.408       .  A
C752        N753   1.428       .  S
N753        O757   1.261       .  A
N753        O758   1.260       .  A
N756        O760   1.262       .  A
N756        O759   1.262       .  A
C761        C762   1.409       .  A
C761        C766   1.405       .  A
C761        H768   1.086       .  S
C762        C763   1.405       .  A
C763        C764   1.403       .  A
C763        N770   1.429       .  S
C764        C765   1.409       .  A
C764        H769   1.085       .  S
C765        C766   1.406       .  A
C766        N767   1.428       .  S
N767        O771   1.262       .  A
N767        O772   1.262       .  A
N770        O774   1.262       .  A
N770        O773   1.262       .  A
C775        C776   1.400       .  A
C775        C780   1.398       .  A
C775        H782   1.084       .  S
C776        C777   1.405       .  A
C777        C778   1.401       .  A
C777        N784   1.431       .  S
C778        C779   1.407       .  A
C778        H783   1.084       .  S
C779        C780   1.416       .  A
C780        N781   1.430       .  S
N781        O785   1.262       .  A
N781        O786   1.261       .  A
N784        O788   1.261       .  A
N784        O787   1.262       .  A
C789        C790   1.402       .  A
C789        C794   1.394   1_455  A
C789        H796   1.082       .  S
C790        C791   1.407       .  A
C791        C792   1.401       .  A
C791        N798   1.430       .  S
C792        C793   1.406   1_455  A
C792        H797   1.083       .  S
C793        C794   1.414       .  A
C794        N795   1.430       .  S
N795        O799   1.262       .  A
N795        O800   1.262       .  A
N798        O802   1.261       .  A
N798        O801   1.262       .  A
C803        C804   1.409       .  A
C803        C808   1.398       .  A
C803        H810   1.086       .  S
C804        C805   1.406       .  A
C805        C806   1.402       .  A
C805        N812   1.428       .  S
C806        C807   1.411       .  A
C806        H811   1.085       .  S
C807        C808   1.405       .  A
C808        N809   1.427       .  S
N809        O813   1.261       .  A
N809        O814   1.262       .  A
N812        O816   1.262       .  A
N812        O815   1.262       .  A
C817        C818   1.408       .  A
C817        C822   1.407       .  A
C817        H824   1.085       .  S
C818        C819   1.406       .  A
C819        C820   1.405       .  A
C819        N826   1.429       .  S
C820        C821   1.411       .  A
C820        H825   1.086       .  S
C821        C822   1.407       .  A
C822        N823   1.428       .  S
N823        O827   1.262       .  A
N823        O828   1.262       .  A
N826        O830   1.262       .  A
N826        O829   1.262       .  A
C831        C832   1.403   1_565  A
C831        C836   1.396   1_565  A
C831        H838   1.084       .  S
C832        C833   1.409       .  A
C833        C834   1.398       .  A
C833        N840   1.427       .  S
C834        C835   1.402       .  A
C834        H839   1.084       .  S
C835        C836   1.412       .  A
C836        N837   1.430   1_545  S
N837        O841   1.262       .  A
N837        O842   1.262       .  A
N840        O844   1.259       .  A
N840        O843   1.261       .  A
C845        C846   1.398       .  A
C845        C850   1.403       .  A
C845        H852   1.084       .  S
C846        C847   1.420       .  A
C847        C848   1.405       .  A
C847        N854   1.434       .  S
C848        C849   1.399       .  A
C848        H853   1.084       .  S
C849        C850   1.419       .  A
C850        N851   1.430       .  S
N851        O855   1.262       .  A
N851        O856   1.262       .  A
N854        O858   1.262       .  A
N854        O857   1.262       .  A
C859        C860   1.402       .  A
C859        C864   1.394   1_545  A
C859        H866   1.085   1_545  S
C860        C861   1.413       .  A
C861        C862   1.398       .  A
C861        N868   1.429       .  S
C862        C863   1.401       .  A
C862        H867   1.085       .  S
C863        C864   1.409   1_545  A
C864        N865   1.429       .  S
N865        O869   1.262       .  A
N865        O870   1.262       .  A
N868        O872   1.262       .  A
N868        O871   1.260       .  A
C873        C874   1.394       .  A
C873        C878   1.400       .  A
C873        H880   1.085       .  S
C874        C875   1.419       .  A
C875        C876   1.405       .  A
C875        N882   1.429       .  S
C876        C877   1.398       .  A
C876        H881   1.085       .  S
C877        C878   1.422       .  A
C878        N879   1.430       .  S
N879        O883   1.262       .  A
N879        O884   1.262       .  A
N882        O886   1.262       .  A
N882        O885   1.262       .  A
C887        C888   1.402       .  A
C887        C892   1.391       .  A
C887        H894   1.085   1_545  S
C888        C889   1.413       .  A
C889        C890   1.399       .  A
C889        N896   1.430       .  S
C890        C891   1.404       .  A
C890        H895   1.085       .  S
C891        C892   1.409       .  A
C892        N893   1.428   1_545  S
N893        O897   1.262       .  A
N893        O898   1.261       .  A
N896        O900   1.262       .  A
N896        O899   1.260       .  A
C901        C902   1.402   1_565  A
C901        C906   1.394   1_465  A
C901        H908   1.085       .  S
C902        C903   1.411       .  A
C903        C904   1.399       .  A
C903        N910   1.441       .  S
C904        C905   1.404   1_455  A
C904        H909   1.084       .  S
C905        C906   1.413       .  A
C906        N907   1.430   1_545  S
N907        O911   1.261       .  A
N907        O912   1.262       .  A
N910        O914   1.263       .  A
N910        O913   1.263       .  A
C915        C916   1.400       .  A
C915        C920   1.410       .  A
C915        H922   1.085       .  S
C916        C917   1.420       .  A
C917        C918   1.404       .  A
C917        N924   1.428       .  S
C918        C919   1.394       .  A
C918        H923   1.085       .  S
C919        C920   1.418       .  A
C920        N921   1.426       .  S
N921        O925   1.260       .  A
N921        O926   1.261       .  A
N924        O928   1.262       .  A
N924        O927   1.261       .  A
C929        C930   1.408       .  A
C929        C934   1.406       .  A
C929        H936   1.085       .  S
C930        C931   1.411       .  A
C931        C932   1.405       .  A
C931        N938   1.429       .  S
C932        C933   1.408       .  A
C932        H937   1.085       .  S
C933        C934   1.411       .  A
C934        N935   1.428       .  S
N935        O939   1.262       .  A
N935        O940   1.262       .  A
N938        O942   1.262       .  A
N938        O941   1.262       .  A
C943        C944   1.409       .  A
C943        C948   1.414       .  A
C943        H950   1.084       .  S
C944        C945   1.412       .  A
C945        C946   1.408       .  A
C945        N952   1.430       .  S
C946        C947   1.408       .  A
C946        H951   1.083       .  S
C947        C948   1.413       .  A
C948        N949   1.428       .  S
N949        O953   1.262       .  A
N949        O954   1.262       .  A
N952        O956   1.262   1_455  A
N952        O955   1.262       .  A
C957        C958   1.403       .  A
C957        C962   1.400       .  A
C957        H964   1.085       .  S
C958        C959   1.412       .  A
C959        C960   1.400       .  A
C959        N966   1.429       .  S
C960        C961   1.404       .  A
C960        H965   1.085       .  S
C961        C962   1.413       .  A
C962        N963   1.430       .  S
N963        O967   1.261       .  A
N963        O968   1.262       .  A
N966        O970   1.261       .  A
N966        O969   1.262       .  A
C971        C972   1.406       .  A
C971        C976   1.404       .  A
C971        H978   1.084       .  S
C972        C973   1.417       .  A
C973        C974   1.407       .  A
C973        N980   1.429       .  S
C974        C975   1.402       .  A
C974        H979   1.085       .  S
C975        C976   1.412       .  A
C976        N977   1.431       .  S
N977        O981   1.262       .  A
N977        O982   1.262       .  A
N980        O984   1.262       .  A
N980        O983   1.262       .  A
C985        C986   1.403       .  A
C985        C990   1.405       .  A
C985        H992   1.085       .  S
C986        C987   1.415       .  A
C987        C988   1.405       .  A
C987        N994   1.429       .  S
C988        C989   1.403       .  A
C988        H993   1.085       .  S
C989        C990   1.417       .  A
C990        N991   1.430       .  S
N991        O995   1.262       .  A
N991        O996   1.262       .  A
N994        O998   1.262       .  A
N994        O997   1.262       .  A
C999       C1000   1.409       .  A
C999       C1004   1.408       .  A
C999       H1006   1.085       .  S
C1000      C1001   1.417       .  A
C1001      C1002   1.409       .  A
C1001      N1008   1.428       .  S
C1002      C1003   1.404       .  A
C1002      H1007   1.085       .  S
C1003      C1004   1.410       .  A
C1004      N1005   1.431       .  S
N1005      O1009   1.262       .  A
N1005      O1010   1.261       .  A
N1008      O1012   1.261       .  A
N1008      O1011   1.262       .  A
C1013      C1014   1.406       .  A
C1013      C1018   1.404       .  A
C1013      H1020   1.083       .  S
C1014      C1015   1.413       .  A
C1015      C1016   1.403       .  A
C1015      N1022   1.430       .  S
C1016      C1017   1.405       .  A
C1016      H1021   1.083       .  S
C1017      C1018   1.411       .  A
C1018      N1019   1.428       .  S
N1019      O1023   1.262       .  A
N1019      O1024   1.260       .  A
N1022      O1026   1.261       .  A
N1022      O1025   1.262       .  A
C1027      C1028   1.396       .  A
C1027      C1032   1.405       .  A
C1027      H1034   1.085       .  S
C1028      C1029   1.420       .  A
C1029      C1030   1.406       .  A
C1029      N1036   1.426       .  S
C1030      C1031   1.396       .  A
C1030      H1035   1.085       .  S
C1031      C1032   1.418       .  A
C1032      N1033   1.426       .  S
N1033      O1037   1.260       .  A
N1033      O1038   1.260       .  A
N1036      O1040   1.261       .  A
N1036      O1039   1.259       .  A
C1041      C1042   1.404   1_655  A
C1041      C1046   1.409       .  A
C1041      H1048   1.085       .  S
C1042      C1043   1.410   1_455  A
C1043      C1044   1.403       .  A
C1043      N1050   1.429   1_655  S
C1044      C1045   1.406       .  A
C1044      H1049   1.085       .  S
C1045      C1046   1.418       .  A
C1046      N1047   1.430       .  S
N1047      O1051   1.262       .  A
N1047      O1052   1.261       .  A
N1050      O1054   1.261       .  A
N1050      O1053   1.262       .  A
C1055      C1056   1.398       .  A
C1055      C1060   1.399       .  A
C1055      H1062   1.085       .  S
C1056      C1057   1.425       .  A
C1057      C1058   1.398       .  A
C1057      N1064   1.430       .  S
C1058      C1059   1.396       .  A
C1058      H1063   1.085       .  S
C1059      C1060   1.420       .  A
C1060      N1061   1.430       .  S
N1061      O1065   1.261       .  A
N1061      O1066   1.262   1_565  A
N1064      O1068   1.262       .  A
N1064      O1067   1.262       .  A
C1069      C1070   1.399       .  A
C1069      C1074   1.407   1_565  A
C1069      H1076   1.085       .  S
C1070      C1071   1.415   1_565  A
C1071      C1072   1.412       .  A
C1071      N1078   1.430       .  S
C1072      C1073   1.407       .  A
C1072      H1077   1.085       .  S
C1073      C1074   1.421       .  A
C1074      N1075   1.429       .  S
N1075      O1079   1.262   1_445  A
N1075      O1080   1.262       .  A
N1078      O1082   1.262       .  A
N1078      O1081   1.261       .  A
C1083      C1084   1.403       .  A
C1083      C1088   1.394   1_455  A
C1083      H1090   1.085       .  S
C1084      C1085   1.412       .  A
C1085      C1086   1.401       .  A
C1085      N1092   1.440       .  S
C1086      C1087   1.405   1_455  A
C1086      H1091   1.084       .  S
C1087      C1088   1.412       .  A
C1088      N1089   1.430       .  S
N1089      O1093   1.262       .  A
N1089      O1094   1.262       .  A
N1092      O1096   1.263       .  A
N1092      O1095   1.262       .  A
C1097      C1098   1.402       .  A
C1097      C1102   1.408       .  A
C1097      H1104   1.085       .  S
C1098      C1099   1.413       .  A
C1099      C1100   1.404       .  A
C1099      N1106   1.429       .  S
C1100      C1101   1.404       .  A
C1100      H1105   1.085       .  S
C1101      C1102   1.418       .  A
C1102      N1103   1.429       .  S
N1103      O1107   1.262       .  A
N1103      O1108   1.262       .  A
N1106      O1110   1.262       .  A
N1106      O1109   1.262       .  A
C1111      C1112   1.411       .  A
C1111      C1116   1.401       .  A
C1111      H1118   1.093       .  S
C1112      C1113   1.411       .  A
C1113      C1114   1.397       .  A
C1113      N1120   1.429       .  S
C1114      C1115   1.406       .  A
C1114      H1119   1.101       .  S
C1115      C1116   1.409       .  A
C1116      N1117   1.430       .  S
N1117      O1121   1.261       .  A
N1117      O1122   1.262       .  A
N1120      O1124   1.261       .  A
N1120      O1123   1.262       .  A
C1125      C1126   1.400       .  A
C1125      C1130   1.402       .  A
C1125      H1132   1.085       .  S
C1126      C1127   1.422       .  A
C1127      C1128   1.400       .  A
C1127      N1134   1.430       .  S
C1128      C1129   1.398       .  A
C1128      H1133   1.085       .  S
C1129      C1130   1.420       .  A
C1130      N1131   1.430       .  S
N1131      O1135   1.262   1_565  A
N1131      O1136   1.262   1_565  A
N1134      O1138   1.262       .  A
N1134      O1137   1.262       .  A
C1139      C1140   1.403   1_556  A
C1139      C1144   1.404       .  A
C1139      H1146   1.085       .  S
C1140      C1141   1.409       .  A
C1141      C1142   1.407       .  A
C1141      N1148   1.429   1_655  S
C1142      C1143   1.409       .  A
C1142      H1147   1.085       .  S
C1143      C1144   1.414   1_554  A
C1144      N1145   1.428       .  S
N1145      O1149   1.262       .  A
N1145      O1150   1.261       .  A
N1148      O1152   1.261       .  A
N1148      O1151   1.262       .  A
C1153      C1154   1.409       .  A
C1153      C1158   1.404       .  A
C1153      H1160   1.085       .  S
C1154      C1155   1.413       .  A
C1155      C1156   1.400       .  A
C1155      N1162   1.430       .  S
C1156      C1157   1.409       .  A
C1156      H1161   1.085       .  S
C1157      C1158   1.410       .  A
C1158      N1159   1.430       .  S
N1159      O1163   1.262       .  A
N1159      O1164   1.262       .  A
N1162      O1166   1.261       .  A
N1162      O1165   1.262       .  A
C1167      C1168   1.393       .  A
C1167      C1172   1.398       .  A
C1167      H1174   1.085       .  S
C1168      C1169   1.416       .  A
C1169      C1170   1.401       .  A
C1169      N1176   1.430       .  S
C1170      C1171   1.397       .  A
C1170      H1175   1.085       .  S
C1171      C1172   1.425       .  A
C1172      N1173   1.432       .  S
N1173      O1177   1.261       .  A
N1173      O1178   1.262       .  A
N1176      O1180   1.262       .  A
N1176      O1179   1.262       .  A
C1181      C1182   1.408       .  A
C1181      C1186   1.407   1_545  A
C1181      H1188   1.084       .  S
C1182      C1183   1.411   1_556  A
C1183      C1184   1.407       .  A
C1183      N1190   1.429       .  S
C1184      C1185   1.406   1_544  A
C1184      H1189   1.083       .  S
C1185      C1186   1.409       .  A
C1186      N1187   1.429       .  S
N1187      O1191   1.262       .  A
N1187      O1192   1.262       .  A
N1190      O1194   1.262       .  A
N1190      O1193   1.262       .  A
C1195      C1196   1.403       .  A
C1195      C1200   1.405       .  A
C1195      H1202   1.085       .  S
C1196      C1197   1.418       .  A
C1197      C1198   1.404       .  A
C1197      N1204   1.430       .  S
C1198      C1199   1.402       .  A
C1198      H1203   1.085       .  S
C1199      C1200   1.417       .  A
C1200      N1201   1.430       .  S
N1201      O1205   1.262       .  A
N1201      O1206   1.262       .  A
N1204      O1208   1.261       .  A
N1204      O1207   1.262       .  A
C1209      C1210   1.404       .  A
C1209      C1214   1.403       .  A
C1209      H1216   1.085       .  S
C1210      C1211   1.416       .  A
C1211      C1212   1.408       .  A
C1211      N1218   1.429       .  S
C1212      C1213   1.402       .  A
C1212      H1217   1.085       .  S
C1213      C1214   1.414       .  A
C1214      N1215   1.431       .  S
N1215      O1219   1.262       .  A
N1215      O1220   1.262       .  A
N1218      O1222   1.262       .  A
N1218      O1221   1.261       .  A
C1223      C1224   1.410       .  A
C1223      C1228   1.412       .  A
C1223      H1230   1.096       .  S
C1224      C1225   1.415       .  A
C1225      C1226   1.398       .  A
C1225      N1232   1.428       .  S
C1226      C1227   1.397       .  A
C1226      H1231   1.118       .  S
C1227      C1228   1.412       .  A
C1228      N1229   1.428       .  S
N1229      O1233   1.262       .  A
N1229      O1234   1.262       .  A
N1232      O1236   1.261       .  A
N1232      O1235   1.262       .  A
C1237      C1238   1.405       .  A
C1237      C1242   1.400       .  A
C1237      H1244   1.084       .  S
C1238      C1239   1.411       .  A
C1239      C1240   1.398       .  A
C1239      N1246   1.430       .  S
C1240      C1241   1.405       .  A
C1240      H1245   1.084       .  S
C1241      C1242   1.410       .  A
C1242      N1243   1.429       .  S
N1243      O1247   1.262       .  A
N1243      O1248   1.262       .  A
N1246      O1250   1.262       .  A
N1246      O1249   1.262       .  A
C1251      C1252   1.404       .  A
C1251      C1256   1.406       .  A
C1251      H1258   1.085       .  S
C1252      C1253   1.417       .  A
C1253      C1254   1.400       .  A
C1253      N1260   1.431       .  S
C1254      C1255   1.401       .  A
C1254      H1259   1.085       .  S
C1255      C1256   1.415       .  A
C1256      N1257   1.429       .  S
N1257      O1261   1.262       .  A
N1257      O1262   1.262       .  A
N1260      O1264   1.262       .  A
N1260      O1263   1.262       .  A
C1265      C1266   1.406   1_556  A
C1265      C1270   1.402       .  A
C1265      H1272   1.085       .  S
C1266      C1267   1.416       .  A
C1267      C1268   1.406       .  A
C1267      N1274   1.429       .  S
C1268      C1269   1.402       .  A
C1268      H1273   1.085       .  S
C1269      C1270   1.410   1_554  A
C1270      N1271   1.430       .  S
N1271      O1275   1.262       .  A
N1271      O1276   1.262       .  A
N1274      O1278   1.262       .  A
N1274      O1277   1.262       .  A
C1279      C1280   1.403       .  A
C1279      C1284   1.392       .  A
C1279      H1286   1.086       .  S
C1280      C1281   1.407       .  A
C1281      C1282   1.397       .  A
C1281      N1288   1.430       .  S
C1282      C1283   1.406       .  A
C1282      H1287   1.086       .  S
C1283      C1284   1.411       .  A
C1284      N1285   1.430       .  S
N1285      O1289   1.262       .  A
N1285      O1290   1.262       .  A
N1288      O1292   1.260       .  A
N1288      O1291   1.262       .  A
C1293      C1294   1.400       .  A
C1293      C1298   1.409       .  A
C1293      H1300   1.085       .  S
C1294      C1295   1.420       .  A
C1295      C1296   1.406       .  A
C1295      N1302   1.429       .  S
C1296      C1297   1.397       .  A
C1296      H1301   1.085       .  S
C1297      C1298   1.417       .  A
C1298      N1299   1.427       .  S
N1299      O1303   1.261       .  A
N1299      O1304   1.261       .  A
N1302      O1306   1.262       .  A
N1302      O1305   1.261       .  A
C1307      C1308   1.409       .  A
C1307      C1312   1.408       .  A
C1307      H1314   1.085       .  S
C1308      C1309   1.417   1_556  A
C1309      C1310   1.408       .  A
C1309      N1316   1.428       .  S
C1310      C1311   1.404   1_554  A
C1310      H1315   1.085       .  S
C1311      C1312   1.411       .  A
C1312      N1313   1.429       .  S
N1313      O1317   1.262       .  A
N1313      O1318   1.262       .  A
N1316      O1320   1.261       .  A
N1316      O1319   1.262       .  A
C1321      C1322   1.407       .  A
C1321      C1326   1.403       .  A
C1321      H1328   1.084       .  S
C1322      C1323   1.416       .  A
C1323      C1324   1.400       .  A
C1323      N1330   1.431       .  S
C1324      C1325   1.400       .  A
C1324      H1329   1.084       .  S
C1325      C1326   1.407       .  A
C1326      N1327   1.430       .  S
N1327      O1331   1.262       .  A
N1327      O1332   1.262       .  A
N1330      O1334   1.262       .  A
N1330      O1333   1.262   1_554  A
C1335      C1336   1.399       .  A
C1335      C1340   1.400       .  A
C1335      H1342   1.085       .  S
C1336      C1337   1.419       .  A
C1337      C1338   1.400       .  A
C1337      N1344   1.430       .  S
C1338      C1339   1.401       .  A
C1338      H1343   1.085       .  S
C1339      C1340   1.422       .  A
C1340      N1341   1.430       .  S
N1341      O1345   1.262   1_565  A
N1341      O1346   1.262   1_565  A
N1344      O1348   1.262       .  A
N1344      O1347   1.261       .  A
C1349      C1350   1.405   1_545  A
C1349      C1354   1.412       .  A
C1349      H1356   1.085       .  S
C1350      C1351   1.407       .  A
C1351      C1352   1.405   1_565  A
C1351      N1358   1.428       .  S
C1352      C1353   1.412       .  A
C1352      H1357   1.085       .  S
C1353      C1354   1.418       .  A
C1354      N1355   1.428       .  S
N1355      O1359   1.262       .  A
N1355      O1360   1.262       .  A
N1358      O1362   1.261       .  A
N1358      O1361   1.262       .  A
C1363      C1364   1.401       .  A
C1363      C1368   1.394       .  A
C1363      H1370   1.084       .  S
C1364      C1365   1.410       .  A
C1365      C1366   1.400       .  A
C1365      N1372   1.440       .  S
C1366      C1367   1.406       .  A
C1366      H1371   1.085       .  S
C1367      C1368   1.414       .  A
C1368      N1369   1.431       .  S
N1369      O1373   1.262       .  A
N1369      O1374   1.262       .  A
N1372      O1376   1.262       .  A
N1372      O1375   1.263       .  A
C1377      C1378   1.403       .  A
C1377      C1382   1.409       .  A
C1377      H1384   1.085       .  S
C1378      C1379   1.414       .  A
C1379      C1380   1.402       .  A
C1379      N1386   1.429       .  S
C1380      C1381   1.402       .  A
C1380      H1385   1.085       .  S
C1381      C1382   1.416       .  A
C1382      N1383   1.429       .  S
N1383      O1387   1.262       .  A
N1383      O1388   1.262       .  A
N1386      O1390   1.261       .  A
N1386      O1389   1.262       .  A
C1391      C1392   1.403       .  A
C1391      C1396   1.402       .  A
C1391      H1398   1.085       .  S
C1392      C1393   1.416       .  A
C1393      C1394   1.404       .  A
C1393      N1400   1.430       .  S
C1394      C1395   1.402       .  A
C1394      H1399   1.085       .  S
C1395      C1396   1.417       .  A
C1396      N1397   1.431       .  S
N1397      O1401   1.262       .  A
N1397      O1402   1.262       .  A
N1400      O1404   1.262       .  A
N1400      O1403   1.260       .  A
C1405      C1406   1.413       .  A
C1405      C1410   1.399       .  A
C1405      H1412   1.085       .  S
C1406      C1407   1.408       .  A
C1407      C1408   1.398       .  A
C1407      N1414   1.429       .  S
C1408      C1409   1.409       .  A
C1408      H1413   1.086       .  S
C1409      C1410   1.406       .  A
C1410      N1411   1.429       .  S
N1411      O1415   1.261       .  A
N1411      O1416   1.262       .  A
N1414      O1418   1.262       .  A
N1414      O1417   1.261       .  A
C1419      C1420   1.404       .  A
C1419      C1424   1.404       .  A
C1419      H1426   1.086       .  S
C1420      C1421   1.409       .  A
C1421      C1422   1.412       .  A
C1421      N1428   1.428       .  S
C1422      C1423   1.411       .  A
C1422      H1427   1.085       .  S
C1423      C1424   1.413       .  A
C1424      N1425   1.429       .  S
N1425      O1429   1.262       .  A
N1425      O1430   1.261       .  A
N1428      O1432   1.260       .  A
N1428      O1431   1.262       .  A
C1433      C1434   1.402       .  A
C1433      C1438   1.407       .  A
C1433      H1440   1.082       .  S
C1434      C1435   1.413       .  A
C1435      C1436   1.396       .  A
C1435      N1442   1.428       .  S
C1436      C1437   1.398       .  A
C1436      H1441   1.083       .  S
C1437      C1438   1.418       .  A
C1438      N1439   1.441       .  S
N1439      O1443   1.262       .  A
N1439      O1444   1.263       .  A
N1442      O1446   1.260       .  A
N1442      O1445   1.262       .  A
C1447      C1448   1.402       .  A
C1447      C1452   1.400       .  A
C1447      H1454   1.085       .  S
C1448      C1449   1.409       .  A
C1449      C1450   1.393       .  A
C1449      N1456   1.428       .  S
C1450      C1451   1.401       .  A
C1450      H1455   1.085       .  S
C1451      C1452   1.415       .  A
C1452      N1453   1.431       .  S
N1453      O1457   1.261       .  A
N1453      O1458   1.262       .  A
N1456      O1460   1.262       .  A
N1456      O1459   1.262       .  A
C1461      C1462   1.398       .  A
C1461      C1466   1.404       .  A
C1461      H1468   1.085       .  S
C1462      C1463   1.421       .  A
C1463      C1464   1.399       .  A
C1463      N1470   1.431       .  S
C1464      C1465   1.394       .  A
C1464      H1469   1.085       .  S
C1465      C1466   1.417       .  A
C1466      N1467   1.429       .  S
N1467      O1471   1.262       .  A
N1467      O1472   1.262       .  A
N1470      O1474   1.262       .  A
N1470      O1473   1.262       .  A
C1475      C1476   1.408       .  A
C1475      C1480   1.408   1_545  A
C1475      H1482   1.085       .  S
C1476      C1477   1.413       .  A
C1477      C1478   1.407       .  A
C1477      N1484   1.428       .  S
C1478      C1479   1.405   1_545  A
C1478      H1483   1.085       .  S
C1479      C1480   1.411       .  A
C1480      N1481   1.428       .  S
N1481      O1485   1.260       .  A
N1481      O1486   1.261       .  A
N1484      O1488   1.262       .  A
N1484      O1487   1.262       .  A
C1489      C1490   1.412       .  A
C1489      C1494   1.401       .  A
C1489      H1496   1.085       .  S
C1490      C1491   1.407       .  A
C1491      C1492   1.397       .  A
C1491      N1498   1.429       .  S
C1492      C1493   1.414       .  A
C1492      H1497   1.085       .  S
C1493      C1494   1.409       .  A
C1494      N1495   1.428       .  S
N1495      O1499   1.262       .  A
N1495      O1500   1.262       .  A
N1498      O1502   1.262       .  A
N1498      O1501   1.262       .  A
C1503      C1504   1.402   1_655  A
C1503      C1508   1.407       .  A
C1503      H1510   1.085   1_655  S
C1504      C1505   1.411   1_455  A
C1505      C1506   1.405       .  A
C1505      N1512   1.429       .  S
C1506      C1507   1.406       .  A
C1506      H1511   1.085       .  S
C1507      C1508   1.417       .  A
C1508      N1509   1.429       .  S
N1509      O1513   1.262       .  A
N1509      O1514   1.262       .  A
N1512      O1516   1.262       .  A
N1512      O1515   1.262       .  A
C1517      C1518   1.412       .  A
C1517      C1522   1.402       .  A
C1517      H1524   1.084       .  S
C1518      C1519   1.412       .  A
C1519      C1520   1.400       .  A
C1519      N1526   1.429       .  S
C1520      C1521   1.407       .  A
C1520      H1525   1.084       .  S
C1521      C1522   1.409       .  A
C1522      N1523   1.430       .  S
N1523      O1527   1.262       .  A
N1523      O1528   1.260       .  A
N1526      O1530   1.261       .  A
N1526      O1529   1.262       .  A
C1531      C1532   1.410       .  A
C1531      C1536   1.409       .  A
C1531      H1538   1.086       .  S
C1532      C1533   1.413       .  A
C1533      C1534   1.405       .  A
C1533      N1540   1.429       .  S
C1534      C1535   1.404       .  A
C1534      H1539   1.086       .  S
C1535      C1536   1.409       .  A
C1536      N1537   1.428       .  S
N1537      O1541   1.261       .  A
N1537      O1542   1.261       .  A
N1540      O1544   1.262       .  A
N1540      O1543   1.262       .  A
C1545      C1546   1.411       .  A
C1545      C1550   1.400       .  A
C1545      H1552   1.085       .  S
C1546      C1547   1.409       .  A
C1547      C1548   1.401       .  A
C1547      N1554   1.429       .  S
C1548      C1549   1.411       .  A
C1548      H1553   1.085       .  S
C1549      C1550   1.410       .  A
C1550      N1551   1.429       .  S
N1551      O1555   1.262       .  A
N1551      O1556   1.262       .  A
N1554      O1558   1.262       .  A
N1554      O1557   1.262       .  A
C1559      C1560   1.408       .  A
C1559      C1564   1.410       .  A
C1559      H1566   1.085       .  S
C1560      C1561   1.422       .  A
C1561      C1562   1.405       .  A
C1561      N1568   1.429       .  S
C1562      C1563   1.399       .  A
C1562      H1567   1.085       .  S
C1563      C1564   1.413       .  A
C1564      N1565   1.429       .  S
N1565      O1569   1.262       .  A
N1565      O1570   1.262       .  A
N1568      O1572   1.262       .  A
N1568      O1571   1.262   1_455  A
C1573      C1574   1.405       .  A
C1573      C1578   1.403       .  A
C1573      H1580   1.084       .  S
C1574      C1575   1.408       .  A
C1575      C1576   1.409       .  A
C1575      N1582   1.428       .  S
C1576      C1577   1.410       .  A
C1576      H1581   1.084       .  S
C1577      C1578   1.411       .  A
C1578      N1579   1.427       .  S
N1579      O1583   1.262       .  A
N1579      O1584   1.260       .  A
N1582      O1586   1.260       .  A
N1582      O1585   1.262       .  A
C1587      C1588   1.402       .  A
C1587      C1592   1.405       .  A
C1587      H1594   1.083       .  S
C1588      C1589   1.413       .  A
C1589      C1590   1.400       .  A
C1589      N1596   1.426       .  S
C1590      C1591   1.400       .  A
C1590      H1595   1.083       .  S
C1591      C1592   1.417       .  A
C1592      N1593   1.434       .  S
N1593      O1597   1.262       .  A
N1593      O1598   1.262       .  A
N1596      O1600   1.262       .  A
N1596      O1599   1.261       .  A
C1601      C1602   1.397       .  A
C1601      C1606   1.401       .  A
C1601      H1608   1.084       .  S
C1602      C1603   1.423       .  A
C1603      C1604   1.400       .  A
C1603      N1610   1.435       .  S
C1604      C1605   1.395       .  A
C1604      H1609   1.084       .  S
C1605      C1606   1.417       .  A
C1606      N1607   1.430       .  S
N1607      O1611   1.261       .  A
N1607      O1612   1.262       .  A
N1610      O1614   1.262       .  A
N1610      O1613   1.262       .  A
C1615      C1616   1.402       .  A
C1615      C1620   1.403       .  A
C1615      H1622   1.084       .  S
C1616      C1617   1.417       .  A
C1617      C1618   1.405       .  A
C1617      N1624   1.433       .  S
C1618      C1619   1.402       .  A
C1618      H1623   1.084       .  S
C1619      C1620   1.418       .  A
C1620      N1621   1.431       .  S
N1621      O1625   1.262       .  A
N1621      O1626   1.262       .  A
N1624      O1628   1.261       .  A
N1624      O1627   1.262       .  A
C1629      C1630   1.405       .  A
C1629      C1634   1.406   1_545  A
C1629      H1636   1.084       .  S
C1630      C1631   1.418       .  A
C1631      C1632   1.408   1_545  A
C1631      N1638   1.432       .  S
C1632      C1633   1.402       .  A
C1632      H1637   1.084       .  S
C1633      C1634   1.414       .  A
C1634      N1635   1.430       .  S
N1635      O1639   1.261       .  A
N1635      O1640   1.262       .  A
N1638      O1642   1.262       .  A
N1638      O1641   1.262       .  A
C1643      C1644   1.412       .  A
C1643      C1648   1.410       .  A
C1643      H1650   1.084       .  S
C1644      C1645   1.416       .  A
C1645      C1646   1.407       .  A
C1645      N1652   1.429       .  S
C1646      C1647   1.402       .  A
C1646      H1651   1.083       .  S
C1647      C1648   1.408       .  A
C1648      N1649   1.431       .  S
N1649      O1653   1.261       .  A
N1649      O1654   1.261       .  A
N1652      O1656   1.261       .  A
N1652      O1655   1.262       .  A
C1657      C1658   1.404       .  A
C1657      C1662   1.401       .  A
C1657      H1664   1.083       .  S
C1658      C1659   1.411       .  A
C1659      C1660   1.402       .  A
C1659      N1666   1.429       .  S
C1660      C1661   1.406       .  A
C1660      H1665   1.083       .  S
C1661      C1662   1.413       .  A
C1662      N1663   1.428       .  S
N1663      O1667   1.262       .  A
N1663      O1668   1.261       .  A
N1666      O1670   1.260       .  A
N1666      O1669   1.262       .  A
C1671      C1672   1.402       .  A
C1671      C1676   1.399       .  A
C1671      H1678   1.085       .  S
C1672      C1673   1.409       .  A
C1673      C1674   1.392       .  A
C1673      N1680   1.430       .  S
C1674      C1675   1.403       .  A
C1674      H1679   1.085       .  S
C1675      C1676   1.417       .  A
C1676      N1677   1.434       .  S
N1677      O1681   1.262       .  A
N1677      O1682   1.262       .  A
N1680      O1684   1.262       .  A
N1680      O1683   1.262       .  A
C1685      C1686   1.408       .  A
C1685      C1690   1.409       .  A
C1685      H1692   1.085       .  S
C1686      C1687   1.409       .  A
C1687      C1688   1.402       .  A
C1687      N1694   1.429       .  S
C1688      C1689   1.408       .  A
C1688      H1693   1.085       .  S
C1689      C1690   1.412       .  A
C1690      N1691   1.428       .  S
N1691      O1695   1.262       .  A
N1691      O1696   1.262       .  A
N1694      O1698   1.261       .  A
N1694      O1697   1.261       .  A
C1699      C1700   1.411       .  A
C1699      C1704   1.415       .  A
C1699      H1706   1.084       .  S
C1700      C1701   1.424       .  A
C1701      C1702   1.405       .  A
C1701      N1708   1.429       .  S
C1702      C1703   1.400       .  A
C1702      H1707   1.086       .  S
C1703      C1704   1.413       .  A
C1704      N1705   1.428       .  S
N1705      O1709   1.262       .  A
N1705      O1710   1.262       .  A
N1708      O1712   1.262       .  A
N1708      O1711   1.262       .  A
C1713      C1714   1.402       .  A
C1713      C1718   1.402       .  A
C1713      H1720   1.089       .  S
C1714      C1715   1.410       .  A
C1715      C1716   1.397       .  A
C1715      N1722   1.427       .  S
C1716      C1717   1.401       .  A
C1716      H1721   1.094       .  S
C1717      C1718   1.415       .  A
C1718      N1719   1.429       .  S
N1719      O1723   1.262       .  A
N1719      O1724   1.262       .  A
N1722      O1726   1.260       .  A
N1722      O1725   1.262       .  A
C1727      C1728   1.406       .  A
C1727      C1732   1.409   1_565  A
C1727      H1734   1.085       .  S
C1728      C1729   1.410       .  A
C1729      C1730   1.408   1_565  A
C1729      N1736   1.432       .  S
C1730      C1731   1.408       .  A
C1730      H1735   1.085       .  S
C1731      C1732   1.417       .  A
C1732      N1733   1.430   1_545  S
N1733      O1737   1.262       .  A
N1733      O1738   1.261   1_565  A
N1736      O1740   1.262   1_565  A
N1736      O1739   1.262       .  A
C1741      C1742   1.396       .  A
C1741      C1746   1.405       .  A
C1741      H1748   1.085       .  S
C1742      C1743   1.423       .  A
C1743      C1744   1.404       .  A
C1743      N1750   1.429       .  S
C1744      C1745   1.395       .  A
C1744      H1749   1.085       .  S
C1745      C1746   1.416       .  A
C1746      N1747   1.425       .  S
N1747      O1751   1.260       .  A
N1747      O1752   1.261       .  A
N1750      O1754   1.261       .  A
N1750      O1753   1.260       .  A
C1755      C1756   1.412       .  A
C1755      C1760   1.398       .  A
C1755      H1762   1.085       .  S
C1756      C1757   1.408       .  A
C1757      C1758   1.399       .  A
C1757      N1764   1.431       .  S
C1758      C1759   1.410       .  A
C1758      H1763   1.085       .  S
C1759      C1760   1.406       .  A
C1760      N1761   1.429       .  S
N1761      O1765   1.262       .  A
N1761      O1766   1.262       .  A
N1764      O1768   1.262       .  A
N1764      O1767   1.262       .  A
C1769      C1770   1.415       .  A
C1769      C1774   1.420       .  A
C1769      H1776   1.086       .  S
C1770      C1771   1.423       .  A
C1771      C1772   1.392       .  A
C1771      N1778   1.430       .  S
C1772      C1773   1.394       .  A
C1772      H1777   1.093       .  S
C1773      C1774   1.412       .  A
C1774      N1775   1.427       .  S
N1775      O1779   1.262       .  A
N1775      O1780   1.262       .  A
N1778      O1782   1.262       .  A
N1778      O1781   1.261       .  A
C1783      C1784   1.403       .  A
C1783      C1788   1.408       .  A
C1783      H1790   1.085       .  S
C1784      C1785   1.414       .  A
C1785      C1786   1.406       .  A
C1785      N1792   1.431       .  S
C1786      C1787   1.405       .  A
C1786      H1791   1.085       .  S
C1787      C1788   1.415       .  A
C1788      N1789   1.429       .  S
N1789      O1793   1.261       .  A
N1789      O1794   1.262       .  A
N1792      O1796   1.262       .  A
N1792      O1795   1.262       .  A
C1797      C1798   1.404       .  A
C1797      C1802   1.399       .  A
C1797      H1804   1.085       .  S
C1798      C1799   1.422       .  A
C1799      C1800   1.411       .  A
C1799      N1806   1.443       .  S
C1800      C1801   1.401       .  A
C1800      H1805   1.084       .  S
C1801      C1802   1.406       .  A
C1802      N1803   1.427       .  S
N1803      O1807   1.259       .  A
N1803      O1808   1.262       .  A
N1806      O1810   1.263       .  A
N1806      O1809   1.262       .  A
C1811      C1812   1.399       .  A
C1811      C1816   1.395       .  A
C1811      H1818   1.085       .  S
C1812      C1813   1.407       .  A
C1813      C1814   1.396       .  A
C1813      N1820   1.430       .  S
C1814      C1815   1.404       .  A
C1814      H1819   1.083       .  S
C1815      C1816   1.414       .  A
C1816      N1817   1.428       .  S
N1817      O1821   1.261       .  A
N1817      O1822   1.262       .  A
N1820      O1824   1.262       .  A
N1820      O1823   1.262       .  A
C1825      C1826   1.413       .  A
C1825      C1830   1.399       .  A
C1825      H1832   1.084       .  S
C1826      C1827   1.407       .  A
C1827      C1828   1.401       .  A
C1827      N1834   1.429       .  S
C1828      C1829   1.412       .  A
C1828      H1833   1.084       .  S
C1829      C1830   1.405       .  A
C1830      N1831   1.429       .  S
N1831      O1835   1.262       .  A
N1831      O1836   1.262       .  A
N1834      O1838   1.262       .  A
N1834      O1837   1.262       .  A
C1839      C1840   1.392       .  A
C1839      C1844   1.398       .  A
C1839      H1846   1.085       .  S
C1840      C1841   1.415       .  A
C1841      C1842   1.401       .  A
C1841      N1848   1.429       .  S
C1842      C1843   1.397       .  A
C1842      H1847   1.085       .  S
C1843      C1844   1.425       .  A
C1844      N1845   1.432       .  S
N1845      O1849   1.262       .  A
N1845      O1850   1.262       .  A
N1848      O1852   1.262       .  A
N1848      O1851   1.262       .  A
C1853      C1854   1.412       .  A
C1853      C1858   1.413       .  A
C1853      H1860   1.083       .  S
C1854      C1855   1.412   1_554  A
C1855      C1856   1.402       .  A
C1855      N1862   1.428       .  S
C1856      C1857   1.402   1_556  A
C1856      H1861   1.084       .  S
C1857      C1858   1.409       .  A
C1858      N1859   1.431       .  S
N1859      O1863   1.262       .  A
N1859      O1864   1.261       .  A
N1862      O1866   1.261       .  A
N1862      O1865   1.262       .  A
C1867      C1868   1.406       .  A
C1867      C1872   1.405       .  A
C1867      H1874   1.080       .  S
C1868      C1869   1.416       .  A
C1869      C1870   1.401       .  A
C1869      N1876   1.428       .  S
C1870      C1871   1.398       .  A
C1870      H1875   1.082       .  S
C1871      C1872   1.412       .  A
C1872      N1873   1.431       .  S
N1873      O1877   1.261       .  A
N1873      O1878   1.262       .  A
N1876      O1880   1.261       .  A
N1876      O1879   1.262       .  A
C1881      C1882   1.407   1_554  A
C1881      C1886   1.409       .  A
C1881      H1888   1.084       .  S
C1882      C1883   1.421       .  A
C1883      C1884   1.403       .  A
C1883      N1890   1.429       .  S
C1884      C1885   1.397       .  A
C1884      H1889   1.084       .  S
C1885      C1886   1.410   1_556  A
C1886      N1887   1.429       .  S
N1887      O1891   1.261       .  A
N1887      O1892   1.262       .  A
N1890      O1894   1.261       .  A
N1890      O1893   1.262       .  A
C1895      C1896   1.403       .  A
C1895      C1900   1.405       .  A
C1895      H1902   1.085       .  S
C1896      C1897   1.416       .  A
C1897      C1898   1.402       .  A
C1897      N1904   1.429       .  S
C1898      C1899   1.401       .  A
C1898      H1903   1.085       .  S
C1899      C1900   1.415       .  A
C1900      N1901   1.430       .  S
N1901      O1905   1.262       .  A
N1901      O1906   1.262       .  A
N1904      O1908   1.261       .  A
N1904      O1907   1.262       .  A
C1909      C1910   1.404       .  A
C1909      C1914   1.406       .  A
C1909      H1916   1.085       .  S
C1910      C1911   1.417       .  A
C1911      C1912   1.410       .  A
C1911      N1918   1.428       .  S
C1912      C1913   1.402       .  A
C1912      H1917   1.085       .  S
C1913      C1914   1.413       .  A
C1914      N1915   1.428       .  S
N1915      O1919   1.261       .  A
N1915      O1920   1.262       .  A
N1918      O1922   1.262       .  A
N1918      O1921   1.262       .  A
C1923      C1924   1.405       .  A
C1923      C1928   1.402       .  A
C1923      H1930   1.084       .  S
C1924      C1925   1.413       .  A
C1925      C1926   1.399       .  A
C1925      N1932   1.431       .  S
C1926      C1927   1.403       .  A
C1926      H1931   1.084       .  S
C1927      C1928   1.411       .  A
C1928      N1929   1.433       .  S
N1929      O1933   1.262       .  A
N1929      O1934   1.262       .  A
N1932      O1936   1.262       .  A
N1932      O1935   1.262       .  A
C1937      C1938   1.405       .  A
C1937      C1942   1.405   1_545  A
C1937      H1944   1.085       .  S
C1938      C1939   1.415       .  A
C1939      C1940   1.408   1_545  A
C1939      N1946   1.429       .  S
C1940      C1941   1.403   1_655  A
C1940      H1945   1.085   1_655  S
C1941      C1942   1.413   1_455  A
C1942      N1943   1.430       .  S
N1943      O1947   1.261   1_655  A
N1943      O1948   1.262       .  A
N1946      O1950   1.262       .  A
N1946      O1949   1.262       .  A
C1951      C1952   1.404       .  A
C1951      C1956   1.396   1_455  A
C1951      H1958   1.086       .  S
C1952      C1953   1.407       .  A
C1953      C1954   1.395       .  A
C1953      N1960   1.427       .  S
C1954      C1955   1.405   1_455  A
C1954      H1959   1.085       .  S
C1955      C1956   1.412       .  A
C1956      N1957   1.429       .  S
N1957      O1961   1.262       .  A
N1957      O1962   1.262       .  A
N1960      O1964   1.259       .  A
N1960      O1963   1.261       .  A
C1965      C1966   1.399       .  A
C1965      C1970   1.404       .  A
C1965      H1972   1.084       .  S
C1966      C1967   1.412       .  A
C1967      C1968   1.407       .  A
C1967      N1974   1.430       .  S
C1968      C1969   1.405       .  A
C1968      H1973   1.084       .  S
C1969      C1970   1.420       .  A
C1970      N1971   1.430       .  S
N1971      O1975   1.262       .  A
N1971      O1976   1.262       .  A
N1974      O1978   1.262       .  A
N1974      O1977   1.262       .  A
C1979      C1980   1.405       .  A
C1979      C1984   1.396       .  A
C1979      H1986   1.084       .  S
C1980      C1981   1.413       .  A
C1981      C1982   1.393       .  A
C1981      N1988   1.425       .  S
C1982      C1983   1.399       .  A
C1982      H1987   1.085       .  S
C1983      C1984   1.410       .  A
C1984      N1985   1.430       .  S
N1985      O1989   1.262       .  A
N1985      O1990   1.262       .  A
N1988      O1992   1.262       .  A
N1988      O1991   1.262   1_556  A
C1993      C1994   1.397       .  A
C1993      C1998   1.405       .  A
C1993      H2000   1.085       .  S
C1994      C1995   1.418       .  A
C1995      C1996   1.404       .  A
C1995      N2002   1.427       .  S
C1996      C1997   1.396       .  A
C1996      H2001   1.085       .  S
C1997      C1998   1.417       .  A
C1998      N1999   1.427       .  S
N1999      O2003   1.260       .  A
N1999      O2004   1.261       .  A
N2002      O2006   1.261       .  A
N2002      O2005   1.261       .  A
C2007      C2008   1.406   1_556  A
C2007      C2012   1.408   1_545  A
C2007      H2014   1.084       .  S
C2008      C2009   1.419       .  A
C2009      C2010   1.411   1_545  A
C2009      N2016   1.432       .  S
C2010      C2011   1.404       .  A
C2010      H2015   1.084       .  S
C2011      C2012   1.414   1_554  A
C2012      N2013   1.430       .  S
N2013      O2017   1.262       .  A
N2013      O2018   1.262       .  A
N2016      O2020   1.262       .  A
N2016      O2019   1.262       .  A
C2021      C2022   1.412       .  A
C2021      C2026   1.400       .  A
C2021      H2028   1.084       .  S
C2022      C2023   1.418       .  A
C2023      C2024   1.416       .  A
C2023      N2030   1.427   1_556  S
C2024      C2025   1.407       .  A
C2024      H2029   1.085   1_556  S
C2025      C2026   1.406       .  A
C2026      N2027   1.428       .  S
N2027      O2031   1.262       .  A
N2027      O2032   1.261       .  A
N2030      O2034   1.261       .  A
N2030      O2033   1.262       .  A
C2035      C2036   1.404       .  A
C2035      C2040   1.400       .  A
C2035      H2042   1.084       .  S
C2036      C2037   1.410       .  A
C2037      C2038   1.401       .  A
C2037      N2044   1.429       .  S
C2038      C2039   1.403       .  A
C2038      H2043   1.084       .  S
C2039      C2040   1.411       .  A
C2040      N2041   1.434       .  S
N2041      O2045   1.262       .  A
N2041      O2046   1.262       .  A
N2044      O2048   1.262       .  A
N2044      O2047   1.262       .  A
