geometry optimzed in LAMMPS
_audit_creation_date              2020-12-01 
_audit_creation_method            'lammps2cif' 
_symmetry_space_group_name_H-M    'P1' 
_symmetry_Int_Tables_number       1 
_symmetry_cell_setting            triclinic 
loop_ 
_symmetry_equiv_pos_as_xyz 
  x,y,z 
_cell_length_a                    57.53696433 
_cell_length_b                    47.11943073030583 
_cell_length_c                    27.692654670017276 
_cell_angle_alpha                 90.03572395043845 
_cell_angle_beta                  90.0093272270499 
_cell_angle_gamma                 90.20794905113625 
loop_ 
_atom_site_label 
_atom_site_type_symbol 
_atom_site_fract_x 
_atom_site_fract_y 
_atom_site_fract_z 
_atom_site_charge 
O1          O  0.40540394  0.81220960  0.59917836    -0.81300
C2          C  0.32745257  0.87459967  0.64747000     0.98100
O3          O  0.34459445  0.86383940  0.66890887    -0.70400
O4          O  0.37771368  0.82640988  0.68465534    -0.74000
Al5        Al  0.37476801  0.85950947  0.64278814     1.49000
C6          C  0.37105115  0.80081362  0.68025338     0.93300
O7          O  0.34388239  0.79157991  0.55559466    -0.80200
O8          O  0.35337544  0.83780790  0.49391765    -0.73800
Al9        Al  0.37387203  0.80540677  0.57901388     1.90100
O10         O  0.32172563  0.82882213  0.56563378    -0.72800
O11         O  0.36412276  0.88638282  0.53720493    -0.72700
O12         O  0.32808490  0.87847281  0.60226572    -0.78400
O13         O  0.37421022  0.89696385  0.61147268    -0.76600
O14         O  0.36423751  0.84046530  0.59163576    -1.12700
O15         O  0.40583938  0.85686377  0.62237056    -0.71900
C16         C  0.41642334  0.83467215  0.60991096     0.98800
C17         C  0.32387517  0.80287284  0.55658164     0.95200
Al18       Al  0.34369262  0.85667117  0.55290561     1.55600
O19         O  0.36496258  0.79146270  0.63968652    -0.76500
C20         C  0.37218722  0.90395428  0.56724816     0.99400
C21         C  0.37079365  0.82270925  0.48340055     0.94300
O22         O  0.38423271  0.81469065  0.51638673    -0.81800
O23         O  0.62531740  0.81107441  0.52704565    -0.81300
C24         C  0.67942867  0.87333811  0.65989235     0.98100
O25         O  0.67928830  0.87731738  0.61467918    -0.70400
O26         O  0.68664955  0.82638586  0.58367792    -0.74000
Al27       Al  0.66526633  0.85370490  0.56543099     1.49000
C28         C  0.68430943  0.80038020  0.57483204     0.93300
O29         O  0.64114013  0.79105333  0.65442934    -0.80200
O30         O  0.60168247  0.85634421  0.62612591    -0.73800
Al31       Al  0.63388590  0.80333885  0.59170276     1.90100
O32         O  0.62686124  0.82701639  0.69443507    -0.72800
O33         O  0.63434372  0.89545167  0.61725959    -0.72700
O34         O  0.66176822  0.86279553  0.68018909    -0.78400
O35         O  0.64527076  0.88253070  0.54454530    -0.76600
O36         O  0.64357069  0.83853341  0.60265493    -1.12700
O37         O  0.65738329  0.83296177  0.50729173    -0.71900
C38         C  0.64006856  0.81784766  0.49554389     0.98800
C39         C  0.63348840  0.80138370  0.69315829     0.95200
Al40       Al  0.63204972  0.85887337  0.65086517     1.55600
O41         O  0.66423574  0.78914602  0.57241375    -0.76500
C42         C  0.63689879  0.90094654  0.57253797     0.99400
C43         C  0.59103439  0.83380232  0.61518931     0.94300
O44         O  0.60195157  0.81081247  0.60833293    -0.81800
O45         O  0.60410683  0.69228373  0.11482211    -0.81300
C46         C  0.67928587  0.62368338  0.15195417     0.98100
O47         O  0.66200395  0.63311184  0.17464154    -0.70400
O48         O  0.63100461  0.67212280  0.19512288    -0.74000
Al49       Al  0.63214200  0.64070913  0.14933434     1.49000
C50         C  0.63974780  0.69690241  0.19393467     0.93300
O51         O  0.66514723  0.71006385  0.06842386    -0.80200
O52         O  0.65353702  0.66646217  0.00343289    -0.73800
Al53       Al  0.63548264  0.69712204  0.09276639     1.90100
O54         O  0.68666623  0.67205505  0.07386292    -0.72800
O55         O  0.64251227  0.61686068  0.04127081    -0.72700
O56         O  0.67884823  0.62168605  0.10642245    -0.78400
O57         O  0.63090061  0.60484467  0.11378353    -0.76600
O58         O  0.64361978  0.66103582  0.10051931    -1.12700
O59         O  0.60106052  0.64667518  0.12971483    -0.71900
C60         C  0.59174565  0.67050930  0.12246816     0.98800
C61         C  0.68484519  0.69827707  0.06683788     0.95200
Al62       Al  0.66358191  0.64540822  0.05962125     1.55600
O63         O  0.64623278  0.70739434  0.15439335    -0.76500
C64         C  0.63321438  0.59907352  0.06917544     0.99400
C65         C  0.63642623  0.68261504  0.99531228     0.94300
O66         O  0.62389243  0.69093167  0.02975398    -0.81800
O67         O  0.38402685  0.69132760  0.01490229    -0.81300
C68         C  0.32769605  0.63151330  0.14615780     0.98100
O69         O  0.32872907  0.62617355  0.10139627    -0.70400
O70         O  0.32100264  0.67573793  0.06292291    -0.74000
Al71       Al  0.34392627  0.64807838  0.05142109     1.49000
C72         C  0.32374657  0.70165335  0.05355807     0.93300
O73         O  0.36406758  0.71414176  0.13914014    -0.80200
O74         O  0.40624341  0.64993304  0.11996302    -0.73800
Al75       Al  0.37349708  0.70043952  0.07790545     1.90100
O76         O  0.37813521  0.67950482  0.18269198    -0.72800
O77         O  0.37470965  0.60905021  0.11100998    -0.72700
O78         O  0.34498942  0.64235057  0.16727898    -0.78400
O79         O  0.36508696  0.61870759  0.03614248    -0.76600
O80         O  0.36429200  0.66515259  0.09010553    -1.12700
O81         O  0.35361149  0.66676303  0.99256890    -0.71900
C82         C  0.37083788  0.68229644  0.98189763     0.98800
C83         C  0.37073803  0.70471281  0.17936012     0.95200
Al84       Al  0.37515039  0.64660730  0.14115258     1.55600
O85         O  0.34376559  0.71294863  0.05355570    -0.76500
C86         C  0.37345046  0.60185596  0.06686348     0.99400
C87         C  0.41655958  0.67287038  0.10983051     0.94300
O88         O  0.40511993  0.69497682  0.09938349    -0.81800
O89         O  0.10270495  0.81505138  0.88370620    -0.81300
C90         C  0.18052576  0.87959282  0.84312859     0.98100
O91         O  0.16263900  0.87119912  0.82106399    -0.70400
O92         O  0.12967298  0.83402593  0.80117522    -0.74000
Al93       Al  0.13280078  0.86497274  0.84814567     1.49000
C94         C  0.13732415  0.80872676  0.80163597     0.93300
O95         O  0.16371644  0.79297636  0.92475891    -0.80200
O96         O  0.15592431  0.83529796  0.99136921    -0.73800
Al97       Al  0.13423569  0.80800716  0.90288621     1.90100
O98         O  0.18713857  0.82946501  0.91763299    -0.72800
O99         O  0.14576944  0.88619775  0.95685033    -0.72700
O100        O  0.18061741  0.88119220  0.88872351    -0.78400
O101        O  0.13356360  0.90022927  0.88569755    -0.76600
O102        O  0.14410098  0.84341059  0.89533922    -1.12700
O103        O  0.10185470  0.86083433  0.86999876    -0.71900
C104        C  0.09143916  0.83787039  0.87894787     0.98800
C105        C  0.18404475  0.80337544  0.92497724     0.95200
Al106      Al  0.16546160  0.85716541  0.93536844     1.55600
O107        O  0.14339562  0.79749689  0.84078320    -0.76500
C108        C  0.13649766  0.90481697  0.93063348     0.99400
C109        C  0.13826426  0.81991562  0.99953690     0.94300
O110        O  0.12408834  0.81482042  0.96614357    -0.81800
O111        O  0.88289960  0.81276440  0.97986903    -0.81300
C112        C  0.82859555  0.87499232  0.84771615     0.98100
O113        O  0.82755672  0.87746269  0.89319543    -0.70400
O114        O  0.82044577  0.82601716  0.92510238    -0.74000
Al115      Al  0.84190325  0.85446883  0.94272867     1.49000
C116        C  0.82376055  0.80022733  0.93446537     0.93300
O117        O  0.86518030  0.79324487  0.85368721    -0.80200
O118        O  0.90650884  0.85722514  0.88262030    -0.73800
Al119      Al  0.87368524  0.80482877  0.91575521     1.90100
O120        O  0.87979501  0.82902911  0.81329772    -0.72800
O121        O  0.87469213  0.89647905  0.89260181    -0.72700
O122        O  0.84679701  0.86569311  0.82825334    -0.78400
O123        O  0.86129517  0.88418611  0.96375913    -0.76600
O124        O  0.86396662  0.83999611  0.90551375    -1.12700
O125        O  0.85074131  0.83411205  0.00087252    -0.71900
C126        C  0.86844830  0.81957005  0.01203141     0.98800
C127        C  0.87143163  0.80407039  0.81430846     0.95200
Al128      Al  0.87603358  0.86056910  0.85795253     1.55600
O129        O  0.84412019  0.79027807  0.93663003    -0.76500
C130        C  0.87135826  0.90200995  0.93697059     0.99400
C131        C  0.91680609  0.83435073  0.89210712     0.94300
O132        O  0.90543736  0.81156190  0.89740460    -0.81800
O133        O  0.90437321  0.69080553  0.39914138    -0.81300
C134        C  0.82491002  0.63054739  0.34969127     0.98100
O135        O  0.84309675  0.63929155  0.32902040    -0.70400
O136        O  0.87769784  0.67498779  0.31345712    -0.74000
Al137      Al  0.87290568  0.64350247  0.35787203     1.49000
C138        C  0.87159221  0.70082480  0.31509296     0.93300
O139        O  0.84433854  0.71517397  0.43737698    -0.80200
O140        O  0.84881209  0.67066926  0.50121311    -0.73800
Al141      Al  0.87315097  0.69915801  0.41686614     1.90100
O142        O  0.81904735  0.68072764  0.42628827    -0.72800
O143        O  0.85757989  0.62001534  0.46404911    -0.72700
O144        O  0.82410819  0.62885358  0.39510426    -0.78400
O145        O  0.87039176  0.60765733  0.39239958    -0.76600
O146        O  0.86192348  0.66451583  0.40603773    -1.12700
O147        O  0.90387720  0.64556156  0.38110693    -0.71900
C148        C  0.91499243  0.66785875  0.39153037     0.98800
C149        C  0.82362683  0.70635232  0.43524941     0.95200
Al150      Al  0.83939261  0.65100588  0.44355986     1.55600
O151        O  0.86565317  0.71181150  0.35460335    -0.76500
C152        C  0.86647982  0.60171476  0.43642262     0.99400
C153        C  0.86670695  0.68474368  0.51270687     0.94300
O154        O  0.88176158  0.69055656  0.48114973    -0.81800
O155        O  0.12513993  0.69455083  0.46946180    -0.81300
C156        C  0.17813959  0.63279959  0.33391915     0.98100
O157        O  0.17937550  0.62999476  0.37924212    -0.70400
O158        O  0.18641908  0.68158436  0.40939801    -0.74000
Al159      Al  0.16567710  0.65303529  0.42911277     1.49000
C160        C  0.18323621  0.70726995  0.41958059     0.93300
O161        O  0.13971343  0.71382844  0.34070247    -0.80200
O162        O  0.10045961  0.64849824  0.37325111    -0.73800
Al163      Al  0.13293464  0.70216051  0.40402145     1.90100
O164        O  0.12523753  0.67696027  0.30255372    -0.72800
O165        O  0.13356556  0.61007258  0.38078800    -0.72700
O166        O  0.15973608  0.64198638  0.31497313    -0.78400
O167        O  0.14697851  0.62303838  0.45163248    -0.76600
O168        O  0.14293124  0.66706159  0.39334879    -1.12700
O169        O  0.15784408  0.67352994  0.48749493    -0.71900
C170        C  0.14044657  0.68813237  0.50016637     0.98800
C171        C  0.13259854  0.70230725  0.30239914     0.95200
Al172      Al  0.13065629  0.64597105  0.34661820     1.55600
O173        O  0.16288922  0.71732371  0.42252410    -0.76500
C174        C  0.13783871  0.60448066  0.42475824     0.99400
C175        C  0.08995893  0.67130684  0.38265186     0.94300
O176        O  0.10103066  0.69432918  0.38818144    -0.81800
O177        O  0.60358999  0.31226030  0.89916135    -0.81300
C178        C  0.68268345  0.37574523  0.85587218     0.98100
O179        O  0.66530440  0.36612073  0.83356263    -0.70400
O180        O  0.63236724  0.32896194  0.81412967    -0.74000
Al181      Al  0.63502754  0.36058722  0.85907600     1.49000
C182        C  0.63830623  0.30309345  0.81658827     0.93300
O183        O  0.66487089  0.29003851  0.94060341    -0.80200
O184        O  0.65675985  0.33407296  0.00554921    -0.73800
Al185      Al  0.63510801  0.30473338  0.91856764     1.90100
O186        O  0.68786173  0.32694095  0.93241647    -0.72800
O187        O  0.64640267  0.38391868  0.96723040    -0.72700
O188        O  0.68216653  0.37803250  0.90132234    -0.78400
O189        O  0.63524029  0.39660239  0.89454563    -0.76600
O190        O  0.64533469  0.33995750  0.90852660    -1.12700
O191        O  0.60376813  0.35716140  0.87808544    -0.71900
C192        C  0.59283203  0.33482945  0.88867469     0.98800
C193        C  0.68509690  0.30089783  0.94035062     0.95200
Al194      Al  0.66636580  0.35467127  0.94831281     1.55600
O195        O  0.64361960  0.29229882  0.85660450    -0.76500
C196        C  0.63746324  0.40198220  0.93940271     0.99400
C197        C  0.63912348  0.31909928  0.01554421     0.94300
O198        O  0.62513395  0.31243787  0.98247932    -0.81800
O199        O  0.38385942  0.31536684  0.96827298    -0.81300
C200        C  0.32954162  0.37994613  0.83860949     0.98100
O201        O  0.32966637  0.38363320  0.88413027    -0.70400
O202        O  0.32159418  0.33314025  0.91821291    -0.74000
Al203      Al  0.34430513  0.36001532  0.93379216     1.49000
C204        C  0.32376838  0.30721489  0.92756475     0.93300
O205        O  0.36447813  0.29722936  0.84196726    -0.80200
O206        O  0.40745756  0.36028721  0.87012077    -0.73800
Al207      Al  0.37370451  0.30853872  0.90430708     1.90100
O208        O  0.38052495  0.33209813  0.80192459    -0.72800
O209        O  0.37587945  0.40084905  0.87978333    -0.72700
O210        O  0.34710822  0.36932222  0.81830092    -0.78400
O211        O  0.36537149  0.38875983  0.95314110    -0.76600
O212        O  0.36503018  0.34418193  0.89491585    -1.12700
O213        O  0.35312282  0.33865222  0.99175419    -0.71900
C214        C  0.36982029  0.32196444  0.00124606     0.98800
C215        C  0.37238275  0.30701136  0.80301578     0.95200
Al216      Al  0.37681718  0.36415645  0.84633880     1.55600
O217        O  0.34359587  0.29553478  0.92663292    -0.76500
C218        C  0.37393449  0.40672993  0.92444168     0.99400
C219        C  0.41742530  0.33705406  0.87922162     0.94300
O220        O  0.40563748  0.31449936  0.88490529    -0.81800
O221        O  0.40416848  0.19087910  0.38475932    -0.81300
C222        C  0.32557032  0.12816168  0.34148067     0.98100
O223        O  0.34380334  0.13650812  0.32080100    -0.70400
O224        O  0.37715910  0.17308707  0.30261307    -0.74000
Al225      Al  0.37331651  0.14181647  0.34903947     1.49000
C226        C  0.36973371  0.19852277  0.30295217     0.93300
O227        O  0.34309605  0.21401536  0.42796335    -0.80200
O228        O  0.35060335  0.17042739  0.49242616    -0.73800
Al229      Al  0.37250584  0.19860234  0.40476794     1.90100
O230        O  0.31969645  0.17790844  0.41777236    -0.72800
O231        O  0.35923914  0.11982963  0.45657087    -0.72700
O232        O  0.32480811  0.12663174  0.38713769    -0.78400
O233        O  0.37189270  0.10610992  0.38565877    -0.76600
O234        O  0.36219276  0.16329235  0.39640540    -1.12700
O235        O  0.40382959  0.14498282  0.37207463    -0.71900
C236        C  0.41488433  0.16757675  0.37998447     0.98800
C237        C  0.32278316  0.20346648  0.42863262     0.95200
Al238      Al  0.34046494  0.14964023  0.43532635     1.55600
O239        O  0.36340659  0.20963441  0.34217978    -0.76500
C240        C  0.36860449  0.10129282  0.43040886     0.99400
C241        C  0.36860984  0.18500805  0.50203093     0.94300
O242        O  0.38257828  0.19144708  0.46868601    -0.81800
O243        O  0.62164883  0.18613899  0.48490570    -0.81300
C244        C  0.68192286  0.13078570  0.35378110     0.98100
O245        O  0.68142629  0.12656538  0.39894681    -0.70400
O246        O  0.68511622  0.17757476  0.43568985    -0.74000
Al247      Al  0.66457981  0.14735354  0.44834987     1.49000
C248        C  0.68051749  0.20320196  0.44428684     0.93300
O249        O  0.63914157  0.20983162  0.35968150    -0.80200
O250        O  0.60204926  0.14106742  0.37872969    -0.73800
Al251      Al  0.63109115  0.19558999  0.42128876     1.90100
O252        O  0.62838993  0.17347287  0.31601073    -0.72800
O253        O  0.63674954  0.10458053  0.38959921    -0.72700
O254        O  0.66414501  0.14029325  0.33270792    -0.78400
O255        O  0.64572078  0.11565503  0.46451313    -0.76600
O256        O  0.64293270  0.16151918  0.40946828    -1.12700
O257        O  0.65391992  0.16576594  0.50679732    -0.71900
C258        C  0.63608947  0.18008614  0.51746261     0.98800
C259        C  0.63399418  0.19941388  0.31919877     0.95200
Al260      Al  0.63360361  0.14142428  0.35845707     1.55600
O261        O  0.65977224  0.21209302  0.44430701    -0.76500
C262        C  0.63864617  0.09781410  0.43379086     0.99400
C263        C  0.59024934  0.16246001  0.39096356     0.94300
O264        O  0.60014799  0.18570942  0.40147676    -0.81800
O265        O  0.90376643  0.31094143  0.60893650    -0.81300
C266        C  0.82811796  0.37734798  0.65611540     0.98100
O267        O  0.84565799  0.36734056  0.67733501    -0.70400
O268        O  0.87859568  0.32951259  0.69417608    -0.74000
Al269      Al  0.87519612  0.36107962  0.64887764     1.49000
C270        C  0.87078243  0.30426403  0.69335254     0.93300
O271        O  0.84092068  0.29134399  0.57173781    -0.80200
O272        O  0.85019056  0.33400461  0.50424536    -0.73800
Al273      Al  0.87157118  0.30483614  0.59192822     1.90100
O274        O  0.81954858  0.32936537  0.58005136    -0.72800
O275        O  0.86266476  0.38388699  0.54143393    -0.72700
O276        O  0.82800215  0.37988812  0.61057463    -0.78400
O277        O  0.87436257  0.39715108  0.61347232    -0.76600
O278        O  0.86303073  0.34050136  0.60110008    -1.12700
O279        O  0.90582443  0.35653846  0.62560438    -0.71900
C280        C  0.91560118  0.33336915  0.61536230     0.98800
C281        C  0.82113256  0.30320831  0.57244788     0.95200
Al282      Al  0.84199303  0.35571496  0.56221558     1.55600
O283        O  0.86322119  0.29388978  0.65455574    -0.76500
C284        C  0.87104298  0.40259201  0.56895894     0.99400
C285        C  0.86739824  0.31816589  0.49494692     0.94300
O286        O  0.88110548  0.31157077  0.52827732    -0.81800
O287        O  0.12411368  0.31670156  0.51423038    -0.81300
C288        C  0.18059915  0.37762745  0.64575915     0.98100
O289        O  0.18120088  0.38020293  0.60022518    -0.70400
O290        O  0.18706433  0.32904507  0.56788735    -0.74000
Al291      Al  0.16606872  0.35750666  0.55072865     1.49000
C292        C  0.18363707  0.30341392  0.55784339     0.93300
O293        O  0.14271862  0.29573941  0.63914986    -0.80200
O294        O  0.10162054  0.36035297  0.61268960    -0.73800
Al295      Al  0.13392014  0.30801730  0.57749430     1.90100
O296        O  0.12841441  0.33134836  0.68039383    -0.72800
O297        O  0.13444580  0.39987490  0.60217403    -0.72700
O298        O  0.16241879  0.36818978  0.66565546    -0.78400
O299        O  0.14713630  0.38740653  0.53060119    -0.76600
O300        O  0.14406746  0.34307375  0.58824437    -1.12700
O301        O  0.15649507  0.33739574  0.49223854    -0.71900
C302        C  0.13839011  0.32319509  0.48158316     0.98800
C303        C  0.13583697  0.30597457  0.67858139     0.95200
Al304      Al  0.13260036  0.36345783  0.63646060     1.55600
O305        O  0.16327088  0.29336495  0.55470788    -0.76500
C306        C  0.13822893  0.40570922  0.55794160     0.99400
C307        C  0.09107332  0.33735971  0.60384017     0.94300
O308        O  0.10242422  0.31474373  0.59736202    -0.81800
O309        O  0.10368436  0.19468661  0.09748937    -0.81300
C310        C  0.18140101  0.12973213  0.13851496     0.98100
O311        O  0.16475728  0.14032939  0.16191590    -0.70400
O312        O  0.13204748  0.17779671  0.18217915    -0.74000
Al313      Al  0.13421093  0.14594885  0.13806168     1.49000
C314        C  0.13819948  0.20356447  0.17938305     0.93300
O315        O  0.16500031  0.21498382  0.05524668    -0.80200
O316        O  0.15426214  0.16973427  0.98969223    -0.73800
Al317      Al  0.13506787  0.20144245  0.07747294     1.90100
O318        O  0.18690847  0.17693746  0.05869184    -0.72800
O319        O  0.14281128  0.12092455  0.03060003    -0.72700
O320        O  0.17995363  0.12666983  0.09329350    -0.78400
O321        O  0.13370071  0.10931864  0.10484073    -0.76600
O322        O  0.14435145  0.16586866  0.08740064    -1.12700
O323        O  0.10294555  0.14987297  0.11988629    -0.71900
C324        C  0.09254908  0.17249539  0.10902088     0.98800
C325        C  0.18478586  0.20327692  0.05313882     0.95200
Al326      Al  0.16410962  0.14978523  0.04650004     1.55600
O327        O  0.14411862  0.21386820  0.13935917    -0.76500
C328        C  0.13488533  0.10306985  0.06024562     0.99400
C329        C  0.13756030  0.18603727  0.98011640     0.94300
O330        O  0.12446543  0.19443652  0.01349794    -0.81800
O331        O  0.88405967  0.18946107  0.02520870    -0.81300
C332        C  0.82956926  0.12724277  0.15771244     0.98100
O333        O  0.82886928  0.12435983  0.11229585    -0.70400
O334        O  0.82173998  0.17528684  0.07909007    -0.74000
Al335      Al  0.84338951  0.14713819  0.06260519     1.49000
C336        C  0.82496556  0.20113785  0.07001993     0.93300
O337        O  0.86671234  0.21010977  0.15150059    -0.80200
O338        O  0.90780373  0.14599877  0.12412229    -0.73800
Al339      Al  0.87478792  0.19767368  0.08920340     1.90100
O340        O  0.88086857  0.17420849  0.19223939    -0.72800
O341        O  0.87591491  0.10574158  0.11440499    -0.72700
O342        O  0.84767661  0.13690713  0.17747641    -0.78400
O343        O  0.86292846  0.11743329  0.04274880    -0.76600
O344        O  0.86518972  0.16234131  0.10006589    -1.12700
O345        O  0.85229304  0.16718305  0.00401467    -0.71900
C346        C  0.86981450  0.18220089  0.99290575     0.98800
C347        C  0.87358166  0.19959918  0.19074007     0.95200
Al348      Al  0.87714319  0.14222259  0.14822598     1.55600
O349        O  0.84521974  0.21154442  0.06817824    -0.76500
C350        C  0.87227628  0.09954100  0.07032986     0.99400
C351        C  0.91786642  0.16912641  0.11428068     0.94300
O352        O  0.90626626  0.19143511  0.10747119    -0.81800
C353        C  0.97958472  0.19731284  0.11059247    -0.27700
C354        C  0.99239033  0.17207794  0.10811767     0.05900
C355        C  0.98048844  0.14595506  0.10624519     0.25500
C356        C  0.95627801  0.14516880  0.10825000    -0.12200
C357        C  0.94345346  0.17037837  0.11129222    -0.26100
C358        C  0.95535301  0.19659010  0.11165225     0.36300
C359        C  0.01808857  0.17299758  0.10893100     0.05900
F360        F  0.99224329  0.12116257  0.10180318    -0.19900
H361        H  0.94756269  0.12478035  0.10707961     0.15800
F362        F  0.94370781  0.22155916  0.11417184    -0.23600
H363        H  0.98835251  0.21764046  0.11269269     0.17500
C364        C  0.03061047  0.19195164  0.07940525     0.25500
C365        C  0.05487618  0.19206494  0.08027401    -0.12100
C366        C  0.06699917  0.17305245  0.10995763    -0.26200
C367        C  0.05448361  0.15444871  0.14001252     0.36500
C368        C  0.03027964  0.15468368  0.13975334    -0.27800
F369        F  0.01946981  0.20969042  0.04858201    -0.19900
H370        H  0.06419856  0.20650835  0.05677098     0.15800
F371        F  0.06558800  0.13634201  0.17028213    -0.23600
H372        H  0.02102605  0.14052993  0.16385127     0.17600
C373        C  0.13732249  0.26980336  0.25826675    -0.27700
C374        C  0.13540657  0.25828207  0.30471378     0.05900
C375        C  0.13446630  0.22859092  0.31002025     0.25500
C376        C  0.13558560  0.21083397  0.26936951    -0.12200
C377        C  0.13767147  0.22234016  0.22269555    -0.26100
C378        C  0.13835304  0.25218052  0.21767082     0.36300
C379        C  0.13490116  0.27736422  0.34740758     0.05900
F380        F  0.13304842  0.21676559  0.35461298    -0.19900
H381        H  0.13494924  0.18806228  0.27445340     0.15800
F382        F  0.13949050  0.26453804  0.17346409    -0.23600
H383        H  0.13782649  0.29260583  0.25341359     0.17500
C384        C  0.15343492  0.29610295  0.35673229     0.25500
C385        C  0.15369615  0.31255907  0.39886927    -0.12100
C386        C  0.13543037  0.31078198  0.43249469    -0.26200
C387        C  0.11617043  0.29321601  0.42148641     0.36500
C388        C  0.11607883  0.27657360  0.37955222    -0.27800
F389        F  0.17194757  0.29727200  0.32643218    -0.19900
H390        H  0.16879777  0.32560764  0.40628723     0.15800
F391        F  0.09780202  0.29112378  0.45207754    -0.23600
H392        H  0.10144490  0.26265672  0.37251563     0.17600
C393        C  0.14454294  0.24196122  0.76019553    -0.27700
C394        C  0.13316458  0.25030649  0.80266959     0.05900
C395        C  0.12329092  0.27762464  0.80470748     0.25500
C396        C  0.12450249  0.29585248  0.76470686    -0.12200
C397        C  0.13569230  0.28733862  0.72199369    -0.26100
C398        C  0.14589986  0.26012005  0.72043542     0.36300
C399        C  0.13317945  0.23108057  0.84541009     0.05900
F400        F  0.11311938  0.28710164  0.84584369    -0.19900
H401        H  0.11659589  0.31661243  0.76715608     0.15800
F402        F  0.15734387  0.25086474  0.68057208    -0.23600
H403        H  0.15244270  0.22117977  0.75773775     0.17500
C404        C  0.11290686  0.22574629  0.87252174     0.25500
C405        C  0.11402297  0.20977094  0.91523660    -0.12100
C406        C  0.13520283  0.19815106  0.93090140    -0.26200
C407        C  0.15510867  0.20195471  0.90194469     0.36500
C408        C  0.15405871  0.21833143  0.85997731    -0.27800
F409        F  0.09206443  0.23601460  0.85782772    -0.19900
H410        H  0.09843034  0.20699940  0.93665430     0.15800
F411        F  0.17606948  0.19166679  0.91592426    -0.23600
H412        H  0.16991283  0.22201916  0.83981972     0.17600
C413        C  0.87088820  0.22429205  0.32159071    -0.27700
C414        C  0.87267067  0.25395444  0.31644011     0.05900
C415        C  0.87539967  0.26536232  0.26992715     0.25500
C416        C  0.87564605  0.24749526  0.22949445    -0.12200
C417        C  0.87360418  0.21784235  0.23452269    -0.26100
C418        C  0.87142417  0.20636150  0.28115692     0.36300
C419        C  0.87240078  0.27253570  0.35996908     0.05900
F420        F  0.87855653  0.29368584  0.26367397    -0.19900
H421        H  0.87779176  0.25688672  0.19407454     0.15800
F422        F  0.86917102  0.17793559  0.28763068    -0.23600
H423        H  0.86885260  0.21500315  0.35711568     0.17500
C424        C  0.85681322  0.29540905  0.36458891     0.25500
C425        C  0.85581241  0.31114439  0.40771499    -0.12100
C426        C  0.87052826  0.30461221  0.44671022    -0.26200
C427        C  0.88670238  0.28232578  0.44095905     0.36500
C428        C  0.88744295  0.26654397  0.39833277    -0.27800
F429        F  0.84179045  0.30166440  0.32837315    -0.19900
H430        H  0.84306431  0.32788582  0.41107743     0.15800
F431        F  0.90124959  0.27470258  0.47726928    -0.23600
H432        H  0.89968825  0.24921138  0.39550292     0.17600
C433        C  0.87727919  0.27726156  0.82281765    -0.27700
C434        C  0.87275130  0.24805973  0.81688040     0.05900
C435        C  0.86730945  0.23787465  0.77058222     0.25500
C436        C  0.86651955  0.25641669  0.73127942    -0.12200
C437        C  0.87114338  0.28564917  0.73685327    -0.26100
C438        C  0.87651623  0.29592635  0.78329922     0.36300
C439        C  0.87328609  0.22846008  0.85907498     0.05900
F440        F  0.86331781  0.20980795  0.76300484    -0.19900
H441        H  0.86254100  0.24763658  0.69608893     0.15800
F442        F  0.88079414  0.32392858  0.79075011    -0.23600
H443        H  0.88115697  0.28569300  0.85830515     0.17500
C444        C  0.89226382  0.22834650  0.89103400     0.25500
C445        C  0.89173306  0.21156817  0.93272900    -0.12100
C446        C  0.87227990  0.19449912  0.94362258    -0.26200
C447        C  0.85389045  0.19330693  0.91000304     0.36500
C448        C  0.85442796  0.21019261  0.86835724    -0.27800
F449        F  0.91123724  0.24475301  0.88226647    -0.19900
H450        H  0.90623943  0.21286387  0.95753600     0.15800
F451        F  0.83475487  0.17713809  0.91850804    -0.23600
H452        H  0.83960382  0.20984708  0.84427557     0.17600
C453        C  0.97689888  0.31668064  0.57318798    -0.27700
C454        C  0.99026610  0.33282131  0.60577715     0.05900
C455        C  0.97883457  0.34850327  0.64184046     0.25500
C456        C  0.95459008  0.34856042  0.64449988    -0.12200
C457        C  0.94122224  0.33253692  0.61198692    -0.26100
C458        C  0.95255576  0.31642295  0.57630544     0.36300
C459        C  0.01604019  0.33373476  0.60212410     0.05900
F460        F  0.99116545  0.36334042  0.67522735    -0.19900
H461        H  0.94621623  0.36087091  0.67253180     0.15800
F462        F  0.94010075  0.30135685  0.54339951    -0.23600
H463        H  0.98530937  0.30467343  0.54481151     0.17500
C464        C  0.02924539  0.30869948  0.60120041     0.25500
C465        C  0.05356841  0.31008846  0.60107743    -0.12100
C466        C  0.06524789  0.33642318  0.60194461    -0.26200
C467        C  0.05194420  0.36145295  0.60153629     0.36500
C468        C  0.02765190  0.36002114  0.60152984    -0.27800
F469        F  0.01867931  0.28290153  0.60241535    -0.19900
H470        H  0.06326484  0.29043990  0.60132417     0.15800
F471        F  0.06230527  0.38737340  0.60115949    -0.23600
H472        H  0.01782833  0.37957213  0.60140081     0.17600
C473        C  0.74303547  0.10719590  0.31766363    -0.27700
C474        C  0.74512548  0.11903365  0.27121243     0.05900
C475        C  0.72602650  0.13377025  0.25191656     0.25500
C476        C  0.70550764  0.13670285  0.27852980    -0.12200
C477        C  0.70346696  0.12535602  0.32532520    -0.26100
C478        C  0.72252328  0.11039620  0.34462503     0.36300
C479        C  0.76741485  0.11729065  0.24372094     0.05900
F480        F  0.72752445  0.14654119  0.20809325    -0.19900
H481        H  0.69137486  0.14869304  0.26283811     0.15800
F482        F  0.72145685  0.09893248  0.38952280    -0.23600
H483        H  0.75739150  0.09555655  0.33325264     0.17500
C484        C  0.78863593  0.12522477  0.26521171     0.25500
C485        C  0.80897099  0.12691043  0.23752292    -0.12100
C486        C  0.80871433  0.12074940  0.18776199    -0.26200
C487        C  0.78771880  0.11126226  0.16686607     0.36500
C488        C  0.76738382  0.10957677  0.19463643    -0.27800
F489        F  0.78950252  0.13310430  0.31232506    -0.19900
H490        H  0.82476192  0.13427539  0.25480771     0.15800
F491        F  0.78652399  0.10455537  0.11924934    -0.23600
H492        H  0.75138781  0.10285966  0.17740638     0.17600
C493        C  0.77961476  0.24636811  0.52763388    -0.27700
C494        C  0.75948655  0.26253813  0.51968820     0.05900
C495        C  0.75929237  0.29122538  0.53293725     0.25500
C496        C  0.77904385  0.30361436  0.55290361    -0.12200
C497        C  0.79960299  0.28785869  0.55929340    -0.26100
C498        C  0.79960294  0.25889610  0.54714117     0.36300
C499        C  0.73872295  0.24945866  0.49761876     0.05900
F500        F  0.74038080  0.30764198  0.52437984    -0.19900
H501        H  0.77844205  0.32605731  0.56137481     0.15800
F502        F  0.81896617  0.24288985  0.55283826    -0.23600
H503        H  0.77989721  0.22405114  0.51822785     0.17500
C504        C  0.74043046  0.23430635  0.45404941     0.25500
C505        C  0.72098515  0.22040740  0.43525101    -0.12100
C506        C  0.69954871  0.22194728  0.45910004    -0.26200
C507        C  0.69756408  0.23806261  0.50159047     0.36500
C508        C  0.71708316  0.25164832  0.52072503    -0.27800
F509        F  0.76091992  0.23279522  0.42991779    -0.19900
H510        H  0.72274302  0.20789867  0.40265845     0.15800
F511        F  0.67725489  0.23886623  0.52653851    -0.23600
H512        H  0.71550477  0.26302497  0.55454952     0.17600
C513        C  0.47875501  0.18848532  0.38153629    -0.27700
C514        C  0.48957792  0.16196123  0.38732853     0.05900
C515        C  0.47559773  0.13757759  0.39175985     0.25500
C516        C  0.45141378  0.13974325  0.38934232    -0.12200
C517        C  0.44056938  0.16623724  0.38315512    -0.26100
C518        C  0.45452393  0.19071085  0.37972299     0.36300
C519        C  0.51535138  0.16033558  0.39006747     0.05900
F520        F  0.48520418  0.11175906  0.39996709    -0.19900
H521        H  0.44112738  0.12056147  0.39293841     0.15800
F522        F  0.44487387  0.21671967  0.37380851    -0.23600
H523        H  0.48914511  0.20758245  0.37804041     0.17500
C524        C  0.52811968  0.14079137  0.36218830     0.25500
C525        C  0.55248520  0.14093948  0.36365161    -0.12100
C526        C  0.56452467  0.16077326  0.39231218    -0.26200
C527        C  0.55168840  0.17973110  0.42106140     0.36500
C528        C  0.52743779  0.17942342  0.41989453    -0.27800
F529        F  0.51715993  0.12246290  0.33187491    -0.19900
H530        H  0.56194833  0.12617691  0.34108959     0.15800
F531        F  0.56254002  0.19854604  0.45065239    -0.23600
H532        H  0.51802939  0.19431262  0.44228843     0.17600
C533        C  0.26291909  0.12402082  0.29976598    -0.27700
C534        C  0.26518350  0.11593323  0.25102945     0.05900
C535        C  0.28768149  0.11024866  0.23320711     0.25500
C536        C  0.30718184  0.11335987  0.26320195    -0.12200
C537        C  0.30475090  0.12151587  0.31180612    -0.26100
C538        C  0.28230827  0.12634644  0.32995840     0.36300
C539        C  0.24414112  0.11529694  0.21914362     0.05900
F540        F  0.29094706  0.10169137  0.18689936    -0.19900
H541        H  0.32430363  0.10960820  0.24822371     0.15800
F542        F  0.27912002  0.13504152  0.37617402    -0.23600
H543        H  0.24611241  0.12963735  0.31441217     0.17500
C544        C  0.22245195  0.10578751  0.23685982     0.25500
C545        C  0.20213533  0.10977426  0.20993464    -0.12100
C546        C  0.20306606  0.12199575  0.16387810    -0.26200
C547        C  0.22483068  0.12927084  0.14426028     0.36500
C548        C  0.24505404  0.12648167  0.17200502    -0.27800
F549        F  0.22076958  0.09292463  0.28055126    -0.19900
H550        H  0.18557374  0.10355430  0.22530611     0.15800
F551        F  0.22639770  0.14101070  0.09961633    -0.23600
H552        H  0.26122725  0.13443105  0.15727251     0.17600
C553        C  0.24399728  0.27382074  0.55375769    -0.27700
C554        C  0.24440720  0.26313698  0.50652601     0.05900
C555        C  0.22433609  0.26425128  0.47778677     0.25500
C556        C  0.20396693  0.27569733  0.49632353    -0.12200
C557        C  0.20356965  0.28660502  0.54330928    -0.26100
C558        C  0.22365949  0.28582550  0.57200491     0.36300
C559        C  0.26501334  0.24856931  0.48812723     0.05900
F560        F  0.22470151  0.25483711  0.43143667    -0.19900
H561        H  0.18878220  0.27728409  0.47323864     0.15800
F562        F  0.22352388  0.29678137  0.61735901    -0.23600
H563        H  0.25934620  0.27271116  0.57635736     0.17500
C564        C  0.28598489  0.26298940  0.47941449     0.25500
C565        C  0.30473325  0.24854907  0.45866467    -0.12100
C566        C  0.30268179  0.21961166  0.44691233    -0.26200
C567        C  0.28166962  0.20525234  0.45743740     0.36500
C568        C  0.26310321  0.21973937  0.47743861    -0.27800
F569        F  0.28812941  0.29098340  0.49014436    -0.19900
H570        H  0.32082241  0.25988352  0.45212305     0.15800
F571        F  0.27904873  0.17695386  0.44991820    -0.23600
H572        H  0.24709208  0.20835994  0.48485373     0.17600
C573        C  0.36698685  0.24158017  0.72262222    -0.27700
C574        C  0.37513412  0.25146089  0.67790821     0.05900
C575        C  0.38210379  0.28015360  0.67429973     0.25500
C576        C  0.38110689  0.29819246  0.71474723    -0.12200
C577        C  0.37284205  0.28822455  0.75947778    -0.26100
C578        C  0.36568426  0.25955954  0.76268829     0.36300
C579        C  0.37488127  0.23200635  0.63514511     0.05900
F580        F  0.38907244  0.29112435  0.63135551    -0.19900
H581        H  0.38663299  0.32006222  0.71090192     0.15800
F582        F  0.35744945  0.24856690  0.80465393    -0.23600
H583        H  0.36155588  0.21967823  0.72667865     0.17500
C584        C  0.39371357  0.23042268  0.60276094     0.25500
C585        C  0.39214648  0.21364946  0.56101003    -0.12100
C586        C  0.37198051  0.19767278  0.55087803    -0.26200
C587        C  0.35387233  0.19764273  0.58511746     0.36500
C588        C  0.35530852  0.21473800  0.62640299    -0.27800
F589        F  0.41366234  0.24503740  0.61132049    -0.19900
H590        H  0.40652860  0.21387398  0.53579787     0.15800
F591        F  0.33416621  0.18232944  0.57768239    -0.23600
H592        H  0.34061542  0.21523306  0.65077557     0.17600
C593        C  0.36357084  0.26227340  0.21865304    -0.27700
C594        C  0.36891759  0.25076079  0.17332978     0.05900
C595        C  0.37398174  0.22153220  0.17040102     0.25500
C596        C  0.37399628  0.20448253  0.21223483    -0.12200
C597        C  0.36895886  0.21616967  0.25787788    -0.26100
C598        C  0.36355249  0.24541657  0.26026786     0.36300
C599        C  0.36946837  0.26970115  0.12994330     0.05900
F600        F  0.37850369  0.20935577  0.12699657    -0.19900
H601        H  0.37799480  0.18213082  0.20888329     0.15800
F602        F  0.35861094  0.25815558  0.30300722    -0.23600
H603        H  0.35976909  0.28468298  0.22202983     0.17500
C604        C  0.35039024  0.28708042  0.11836317     0.25500
C605        C  0.35120236  0.30531077  0.07829360    -0.12100
C606        C  0.37102906  0.30676245  0.04862148    -0.26200
C607        C  0.39034218  0.28976268  0.06092123     0.36500
C608        C  0.38947357  0.27148263  0.10098840    -0.27800
F609        F  0.33055055  0.28561813  0.14475757    -0.19900
H610        H  0.33584148  0.31743791  0.06932922     0.15800
F611        F  0.40999730  0.29038003  0.03382030    -0.23600
H612        H  0.40454575  0.25872314  0.10956511     0.17600
C613        C  0.24402453  0.22154543  0.00466665    -0.27700
C614        C  0.24490472  0.25094855  0.01133314     0.05900
C615        C  0.22603181  0.26487144  0.03320811     0.25500
C616        C  0.20647224  0.24931559  0.04769763    -0.12200
C617        C  0.20566967  0.21980885  0.04077367    -0.26100
C618        C  0.22473698  0.20605869  0.01920002     0.36300
C619        C  0.26510413  0.26655697  0.99216554     0.05900
F620        F  0.22655817  0.29334201  0.04065040    -0.19900
H621        H  0.19196391  0.26028968  0.06413230     0.15800
F622        F  0.22441268  0.17777108  0.00980785    -0.23600
H623        H  0.25809523  0.21056712  0.98666446     0.17500
C624        C  0.28777164  0.25711485  0.00197393     0.25500
C625        C  0.30670278  0.26945063  0.97861220    -0.12100
C626        C  0.30339528  0.29173563  0.94581382    -0.26200
C627        C  0.28073199  0.30170125  0.93695834     0.36500
C628        C  0.26175590  0.28899882  0.95974860    -0.27800
F629        F  0.29159185  0.23614758  0.03460723    -0.19900
H630        H  0.32403258  0.26222927  0.98752368     0.15800
F631        F  0.27688793  0.32367160  0.90629473    -0.23600
H632        H  0.24439361  0.29626899  0.95125080     0.17600
C633        C  0.28618366  0.38122050  0.73422448    -0.27700
C634        C  0.26634928  0.39318616  0.75557763     0.05900
C635        C  0.26817325  0.40327503  0.80344053     0.25500
C636        C  0.28894080  0.39997676  0.82978222    -0.12200
C637        C  0.30848934  0.38685862  0.80894742    -0.26100
C638        C  0.30695374  0.37823037  0.76015426     0.36300
C639        C  0.24362949  0.39278417  0.72883426     0.05900
F640        F  0.24983207  0.41619529  0.82490361    -0.19900
H641        H  0.28953550  0.40716151  0.86689700     0.15800
F642        F  0.32517707  0.36561927  0.73772111    -0.23600
H643        H  0.28536785  0.37297620  0.69777937     0.17500
C644        C  0.24221249  0.40058804  0.67975152     0.25500
C645        C  0.22152054  0.39658760  0.65357741    -0.12100
C646        C  0.20161971  0.38478053  0.67547647    -0.26200
C647        C  0.20281135  0.37797214  0.72508259     0.36500
C648        C  0.22351243  0.38196160  0.75118186    -0.27800
F649        F  0.26093056  0.41186774  0.65681223    -0.19900
H650        H  0.22127423  0.40220086  0.61567416     0.15800
F651        F  0.18432922  0.36622489  0.74816154    -0.23600
H652        H  0.22407929  0.37532558  0.78858269     0.17600
C653        C  0.72399904  0.24282139  0.98906833    -0.27700
C654        C  0.74498880  0.25788325  0.99467397     0.05900
C655        C  0.74636785  0.28608915  0.97861677     0.25500
C656        C  0.72716983  0.29893537  0.95790153    -0.12200
C657        C  0.70582190  0.28446085  0.95413863    -0.26100
C658        C  0.70442822  0.25605754  0.96944699     0.36300
C659        C  0.76555996  0.24426092  0.01645727     0.05900
F660        F  0.76595879  0.30182669  0.98492358    -0.19900
H661        H  0.72886942  0.32089350  0.94688185     0.15800
F662        F  0.68415200  0.24133718  0.96677917    -0.23600
H663        H  0.72269111  0.22085443  0.00018958     0.17500
C664        C  0.76372595  0.22758253  0.05848481     0.25500
C665        C  0.78338456  0.21428012  0.07728409    -0.12100
C666        C  0.80512194  0.21829604  0.05545595    -0.26200
C667        C  0.80712337  0.23575342  0.01468236     0.36500
C668        C  0.78743524  0.24811360  0.99488772    -0.27800
F669        F  0.74305965  0.22423576  0.08145565    -0.19900
H670        H  0.78164466  0.20064910  0.10857299     0.15800
F671        F  0.82784389  0.23927463  0.99192093    -0.23600
H672        H  0.78925891  0.26017213  0.96186322     0.17600
C673        C  0.72367991  0.39828200  0.75537937    -0.27700
C674        C  0.74518749  0.38851136  0.77288221     0.05900
C675        C  0.74606406  0.37684176  0.81970541     0.25500
C676        C  0.72581251  0.37435347  0.84751761    -0.12200
C677        C  0.70420204  0.38282031  0.82897233    -0.26100
C678        C  0.70334761  0.39520555  0.78283741     0.36300
C679        C  0.76622771  0.38876283  0.74124855     0.05900
F680        F  0.76620270  0.36615763  0.83747934    -0.19900
H681        H  0.72682599  0.36432250  0.88263382     0.15800
F682        F  0.68282951  0.40416000  0.76418853    -0.23600
H683        H  0.72253562  0.40781577  0.71990036     0.17500
C684        C  0.76507266  0.37830956  0.69361199     0.25500
C685        C  0.78516390  0.37638512  0.66535878    -0.12100
C686        C  0.80693192  0.38418863  0.68411882    -0.26200
C687        C  0.80812562  0.39539171  0.73115253     0.36500
C688        C  0.78791006  0.39790378  0.75918324    -0.27800
F689        F  0.74478327  0.36822119  0.67527324    -0.19900
H690        H  0.78387247  0.36723505  0.62956468     0.15800
F691        F  0.82881543  0.40373148  0.75008847    -0.23600
H692        H  0.78926601  0.40651475  0.79533107     0.17600
C693        C  0.65143382  0.20720119  0.64301043    -0.27700
C694        C  0.63427941  0.22790267  0.65020308     0.05900
C695        C  0.61630605  0.23036740  0.61612751     0.25500
C696        C  0.61601255  0.21312369  0.57486988    -0.12200
C697        C  0.63381452  0.19328980  0.56622810    -0.26100
C698        C  0.65136559  0.19018492  0.60145425     0.36300
C699        C  0.63558072  0.24728413  0.69258663     0.05900
F700        F  0.59917724  0.24975377  0.62243870    -0.19900
H701        H  0.60235082  0.21628219  0.54853419     0.15800
F702        F  0.66918830  0.17180614  0.59477500    -0.23600
H703        H  0.66547304  0.20498542  0.66877273     0.17500
C704        C  0.63654530  0.23636484  0.73969107     0.25500
C705        C  0.63779488  0.25470058  0.77936149    -0.12100
C706        C  0.63810358  0.28439711  0.77317407    -0.26200
C707        C  0.63747649  0.29533361  0.72588674     0.36500
C708        C  0.63616966  0.27689819  0.68608643    -0.27800
F709        F  0.63559464  0.20793689  0.74744640    -0.19900
H710        H  0.63807734  0.24552745  0.81521083     0.15800
F711        F  0.63843979  0.32373348  0.71799445    -0.23600
H712        H  0.63582229  0.28574057  0.65001056     0.17600
C713        C  0.64208646  0.26360744  0.23695271    -0.27700
C714        C  0.63311095  0.25378405  0.19279317     0.05900
C715        C  0.62483235  0.22559529  0.19028642     0.25500
C716        C  0.62526168  0.20803398  0.23123388    -0.12200
C717        C  0.63408543  0.21799366  0.27553675    -0.26100
C718        C  0.64265368  0.24607418  0.27772097     0.36300
C719        C  0.63355450  0.27271866  0.14943802     0.05900
F720        F  0.61703581  0.21461589  0.14793172    -0.19900
H721        H  0.61870042  0.18654140  0.22815776     0.15800
F722        F  0.65181218  0.25672562  0.31914055    -0.23600
H723        H  0.64865728  0.28509847  0.24002301     0.17500
C724        C  0.61421881  0.27532321  0.11853362     0.25500
C725        C  0.61567966  0.29176522  0.07641325    -0.12100
C726        C  0.63625644  0.30641950  0.06447502    -0.26200
C727        C  0.65509442  0.30518445  0.09695442     0.36500
C728        C  0.65372948  0.28842803  0.13862731    -0.27800
F729        F  0.59385178  0.26207964  0.12900354    -0.19900
H730        H  0.60081866  0.29244705  0.05244644     0.15800
F731        F  0.67537431  0.31885870  0.08732557    -0.23600
H732        H  0.66885537  0.28699383  0.16174233     0.17600
C733        C  0.53051180  0.35516864  0.86106489    -0.27700
C734        C  0.51800934  0.33593689  0.88988912     0.05900
C735        C  0.53032624  0.31626641  0.91819832     0.25500
C736        C  0.55463892  0.31581201  0.91727254    -0.12200
C737        C  0.56712455  0.33515673  0.88863669    -0.26100
C738        C  0.55479418  0.35493716  0.86049940     0.36300
C739        C  0.49219839  0.33610010  0.88910425     0.05900
F740        F  0.51888102  0.29790984  0.94760341    -0.19900
H741        H  0.56372668  0.30061196  0.93962141     0.15800
F742        F  0.56613459  0.37359260  0.83141744    -0.23600
H743        H  0.52142498  0.37014985  0.83827371     0.17500
C744        C  0.47978612  0.36158837  0.89430139     0.25500
C745        C  0.45554086  0.36165907  0.89101674    -0.12100
C746        C  0.44312000  0.33633954  0.88297465    -0.26200
C747        C  0.45553071  0.31075059  0.87861783     0.36500
C748        C  0.47981163  0.31074527  0.88145266    -0.27800
F749        F  0.49106602  0.38638791  0.90332465    -0.19900
H750        H  0.44645028  0.38159641  0.89518824     0.15800
F751        F  0.44433482  0.28582101  0.87027889    -0.23600
H752        H  0.48899752  0.29093200  0.87664536     0.17600
C753        C  0.12036175  0.52665387  0.43712907    -0.27700
C754        C  0.12921196  0.52014703  0.48318666     0.05900
C755        C  0.14009127  0.54175348  0.50999216     0.25500
C756        C  0.14200148  0.56914008  0.49121547    -0.12200
C757        C  0.13352557  0.57569723  0.44488632    -0.26100
C758        C  0.12246971  0.55411764  0.41801925     0.36300
C759        C  0.12897727  0.49043528  0.50138170     0.05900
F760        F  0.15012926  0.53606491  0.55325544    -0.19900
H761        H  0.15092678  0.58505723  0.51262350     0.15800
F762        F  0.11405256  0.55930874  0.37309996    -0.23600
H763        H  0.11206552  0.51027804  0.41562588     0.17500
C764        C  0.12173658  0.48375736  0.54866449     0.25500
C765        C  0.12407931  0.45605478  0.56662432    -0.12100
C766        C  0.13356142  0.43445447  0.53773741    -0.26200
C767        C  0.13990169  0.44109270  0.48966283     0.36500
C768        C  0.13757357  0.46867909  0.47197202    -0.27800
F769        F  0.11249382  0.50405697  0.57758002    -0.19900
H770        H  0.11887277  0.45165715  0.60342879     0.15800
F771        F  0.14917896  0.42125843  0.45982848    -0.23600
H772        H  0.14336587  0.47328037  0.43559216     0.17600
C773        C  0.88194559  0.52318771  0.44458033    -0.27700
C774        C  0.87634325  0.51706788  0.49291299     0.05900
C775        C  0.86864666  0.53921503  0.52282718     0.25500
C776        C  0.86622694  0.56669752  0.50448000    -0.12200
C777        C  0.87123107  0.57280627  0.45577096    -0.26100
C778        C  0.87938214  0.55067898  0.42603170     0.36300
C779        C  0.87693185  0.48734353  0.51102636     0.05900
F780        F  0.86227446  0.53401898  0.56919355    -0.19900
H781        H  0.85977718  0.58308425  0.52833536     0.15800
F782        F  0.88430907  0.55528682  0.37874964    -0.23600
H783        H  0.88799258  0.50648201  0.42087585     0.17500
C784        C  0.86539342  0.46571775  0.48553079     0.25500
C785        C  0.86453751  0.43820115  0.50397051    -0.12100
C786        C  0.87483860  0.43145136  0.54865119    -0.26200
C787        C  0.88681235  0.45294028  0.57385778     0.36500
C788        C  0.88788847  0.48059373  0.55501530    -0.27800
F789        F  0.85379984  0.47146999  0.44398125    -0.19900
H790        H  0.85489606  0.42234326  0.48381146     0.15800
F791        F  0.89723634  0.44739329  0.61676599    -0.23600
H792        H  0.89705175  0.49688054  0.57510210     0.17600
C793        C  0.02706502  0.69399959  0.37506016    -0.27700
C794        C  0.01555344  0.67007166  0.39385005     0.05900
C795        C  0.02880749  0.64672205  0.40932307     0.25500
C796        C  0.05299644  0.64721366  0.40523250    -0.12200
C797        C  0.06443946  0.67116801  0.38668718    -0.26100
C798        C  0.05129419  0.69469570  0.37183441     0.36300
C799        C  0.98978500  0.66916891  0.39544261     0.05900
F800        F  0.01842296  0.62360119  0.42917782    -0.19900
H801        H  0.06284493  0.62899827  0.41726933     0.15800
F802        F  0.06178331  0.71791543  0.35250573    -0.23600
H803        H  0.01726205  0.71197160  0.36188113     0.17500
C804        C  0.97690733  0.69237110  0.41273199     0.25500
C805        C  0.95264111  0.69159790  0.41183861    -0.12100
C806        C  0.94069174  0.66764535  0.39411951    -0.26200
C807        C  0.95360175  0.64416871  0.37802286     0.36500
C808        C  0.97785868  0.64511998  0.37829968    -0.27800
F809        F  0.98773677  0.71566620  0.43102353    -0.19900
H810        H  0.94319464  0.70987128  0.42505875     0.15800
F811        F  0.94290138  0.62049522  0.36093090    -0.23600
H812        H  0.98734832  0.62716438  0.36409188     0.17600
C813        C  0.89085566  0.97903873  0.94948544    -0.27700
C814        C  0.88512821  0.98477313  0.99798109     0.05900
C815        C  0.87709364  0.96228561  0.02698867     0.25500
C816        C  0.87382443  0.93525407  0.00723868    -0.12200
C817        C  0.87813536  0.92991721  0.95800778    -0.26100
C818        C  0.88739252  0.95198312  0.92956637     0.36300
C819        C  0.88443114  0.01468241  0.01576073     0.05900
F820        F  0.87061689  0.96678029  0.07347377    -0.19900
H821        H  0.86684928  0.91873872  0.03032886     0.15800
F822        F  0.89218942  0.94788530  0.88208843    -0.23600
H823        H  0.89723100  0.99589972  0.92640171     0.17500
C824        C  0.89289325  0.02273453  0.06161117     0.25500
C825        C  0.88943919  0.05046620  0.07896540    -0.12100
C826        C  0.87776193  0.07079060  0.05079730    -0.26200
C827        C  0.87025834  0.06286495  0.00410984     0.36500
C828        C  0.87352398  0.03527053  0.98717483    -0.27800
F829        F  0.90453371  0.00389340  0.08959479    -0.19900
H830        H  0.89567068  0.05592546  0.11469185     0.15800
F831        F  0.85889734  0.08138539  0.97502323    -0.23600
H832        H  0.86665324  0.02971456  0.95199471     0.17600
C833        C  0.86066898  0.74160194  0.73060706    -0.27700
C834        C  0.86766756  0.75254871  0.68591591     0.05900
C835        C  0.87438166  0.78126330  0.68281708     0.25500
C836        C  0.87536385  0.79813339  0.72446511    -0.12200
C837        C  0.86929621  0.78678217  0.76968904    -0.26100
C838        C  0.86130809  0.75841924  0.77198779     0.36300
C839        C  0.86812875  0.73359192  0.64321434     0.05900
F840        F  0.87970277  0.79307847  0.63949282    -0.19900
H841        H  0.88095858  0.82000285  0.72132856     0.15800
F842        F  0.85442687  0.74652647  0.81430175    -0.23600
H843        H  0.85517485  0.71967706  0.73373547     0.17500
C844        C  0.88805406  0.73165316  0.61406176     0.25500
C845        C  0.88807970  0.71412195  0.57334872    -0.12100
C846        C  0.86833125  0.69799819  0.56110386    -0.26200
C847        C  0.84883012  0.69877992  0.59195695     0.36500
C848        C  0.84879143  0.71648663  0.63241978    -0.27800
F849        F  0.90753520  0.74666201  0.62498949    -0.19900
H850        H  0.90335270  0.71390331  0.55048751     0.15800
F851        F  0.82927774  0.68368536  0.58184685    -0.23600
H852        H  0.83333817  0.71742463  0.65470437     0.17600
C853        C  0.85331960  0.79156689  0.13669273    -0.27700
C854        C  0.87274895  0.77459854  0.14692591     0.05900
C855        C  0.89178902  0.77531075  0.11514963     0.25500
C856        C  0.89085660  0.79151482  0.07287444    -0.12200
C857        C  0.87096525  0.80744449  0.06131236    -0.26100
C858        C  0.85239325  0.80791194  0.09451910     0.36300
C859        C  0.87272807  0.75564644  0.18989844     0.05900
F860        F  0.91124833  0.76012344  0.12475617    -0.19900
H861        H  0.90548345  0.79077878  0.04829771     0.15800
F862        F  0.83278658  0.82288629  0.08522341    -0.23600
H863        H  0.83840412  0.79133892  0.16054876     0.17500
C864        C  0.86670818  0.76613660  0.23566490     0.25500
C865        C  0.86626579  0.74808721  0.27565734    -0.12100
C866        C  0.87182719  0.71909181  0.27123073    -0.26200
C867        C  0.87788233  0.70855866  0.22532745     0.36500
C868        C  0.87828133  0.72670661  0.18517786    -0.27800
F869        F  0.86175316  0.79403754  0.24201529    -0.19900
H870        H  0.86169461  0.75703207  0.31038516     0.15800
F871        F  0.88334989  0.68080980  0.21902323    -0.23600
H872        H  0.88267562  0.71805054  0.15013656     0.17600
C873        C  0.13388242  0.96657644  0.01921285    -0.27700
C874        C  0.12247257  0.98748573  0.99214005     0.05900
C875        C  0.11377651  0.98008526  0.94612512     0.25500
C876        C  0.11779389  0.95302945  0.92670383    -0.12200
C877        C  0.13019711  0.93256222  0.95294922    -0.26100
C878        C  0.13755482  0.93944318  0.00027090     0.36300
C879        C  0.12235170  0.01753178  0.00949486     0.05900
F880        F  0.10171067  0.99919113  0.91947939    -0.19900
H881        H  0.11153739  0.94828460  0.89070047     0.15800
F882        F  0.14934537  0.92047953  0.02776617    -0.23600
H883        H  0.14109255  0.97160583  0.05433110     0.17500
C884        C  0.11805780  0.02472111  0.05819777     0.25500
C885        C  0.12121317  0.05276129  0.07439204    -0.12100
C886        C  0.12855721  0.07419865  0.04241253    -0.26200
C887        C  0.13166501  0.06711449  0.99331869     0.36500
C888        C  0.12883199  0.03921969  0.97747535    -0.27800
F889        F  0.11109671  0.00465025  0.09028610    -0.19900
H890        H  0.11848990  0.05751576  0.11223735     0.15800
F891        F  0.13843344  0.08684267  0.96045801    -0.23600
H892        H  0.13277956  0.03442499  0.94015355     0.17600
C893        C  0.15969879  0.72270236  0.61728303    -0.27700
C894        C  0.13879731  0.73433605  0.63422193     0.05900
C895        C  0.11802849  0.72784490  0.60973437     0.25500
C896        C  0.11841983  0.71142372  0.56750670    -0.12200
C897        C  0.13947320  0.70076448  0.54931012    -0.26100
C898        C  0.16010265  0.70601851  0.57544534     0.36300
C899        C  0.13890994  0.75382907  0.67650323     0.05900
F900        F  0.09737208  0.73754815  0.62653881    -0.19900
H901        H  0.10231011  0.70764121  0.54832917     0.15800
F902        F  0.18094756  0.69668951  0.55898311    -0.23600
H903        H  0.17590785  0.72744471  0.63548833     0.17500
C904        C  0.14913422  0.74558386  0.72028329     0.25500
C905        C  0.14893707  0.76389033  0.75997213    -0.12100
C906        C  0.13867954  0.79099597  0.75714413    -0.26200
C907        C  0.12905255  0.79959660  0.71279123     0.36500
C908        C  0.12908342  0.78107096  0.67302772    -0.27800
F909        F  0.15870201  0.71944515  0.72521546    -0.19900
H910        H  0.15662907  0.75652183  0.79336337     0.15800
F911        F  0.11930265  0.82561070  0.70790446    -0.23600
H912        H  0.12148789  0.78804037  0.63930814     0.17600
C913        C  0.13666837  0.72296330  0.17032754    -0.27700
C914        C  0.13469287  0.75263829  0.17340198     0.05900
C915        C  0.13108499  0.76531791  0.21861698     0.25500
C916        C  0.13027598  0.74869837  0.26021654    -0.12200
C917        C  0.13262979  0.71908424  0.25745801    -0.26100
C918        C  0.13558166  0.70622217  0.21202325     0.36300
C919        C  0.13557547  0.77030238  0.12936868     0.05900
F920        F  0.12775691  0.79373991  0.22237555    -0.19900
H921        H  0.12756839  0.75900419  0.29471432     0.15800
F922        F  0.13814616  0.67768361  0.20806533    -0.23600
H923        H  0.13931512  0.71282661  0.13564609     0.17500
C924        C  0.15096799  0.79347164  0.12572475     0.25500
C925        C  0.15103219  0.81047621  0.08435191    -0.12100
C926        C  0.13579364  0.80464388  0.04593445    -0.26200
C927        C  0.12046119  0.78126310  0.04978771     0.36500
C928        C  0.12047503  0.76433508  0.09105358    -0.27800
F929        F  0.16644042  0.79908520  0.16151966    -0.19900
H930        H  0.16341807  0.82778259  0.08189985     0.15800
F931        F  0.10601237  0.77391552  0.01304173    -0.23600
H932        H  0.10855866  0.74652263  0.09320663     0.17600
C933        C  0.02787571  0.85828311  0.86985907    -0.27700
C934        C  0.01713039  0.83671886  0.89693786     0.05900
C935        C  0.03103504  0.81568814  0.91832445     0.25500
C936        C  0.05514121  0.81606037  0.91186682    -0.12200
C937        C  0.06586921  0.83756872  0.88455473    -0.26100
C938        C  0.05198315  0.85888647  0.86392482     0.36300
C939        C  0.99140623  0.83557686  0.90022618     0.05900
F940        F  0.02136846  0.79503811  0.94606096    -0.19900
H941        H  0.06547724  0.79969745  0.92884816     0.15800
F942        F  0.06157103  0.87988745  0.83686036    -0.23600
H943        H  0.01751295  0.87439839  0.85227618     0.17500
C944        C  0.97845890  0.86006122  0.91095131     0.25500
C945        C  0.95420535  0.85940365  0.90865381    -0.12100
C946        C  0.94239006  0.83426277  0.89644464    -0.26200
C947        C  0.95528723  0.80946887  0.88775724     0.36500
C948        C  0.97955809  0.81024761  0.88932460    -0.27800
F949        F  0.98925151  0.88461577  0.92370051    -0.19900
H950        H  0.94463206  0.87862643  0.91643783     0.15800
F951        F  0.94455006  0.78477839  0.87560051    -0.23600
H952        H  0.98912787  0.79122537  0.88033540     0.17600
C953        C  0.37642810  0.52167989  0.05659357    -0.27700
C954        C  0.38647031  0.51810821  0.01055781     0.05900
C955        C  0.39474140  0.54240021  0.98622831     0.25500
C956        C  0.39139788  0.56952925  0.00583968    -0.12200
C957        C  0.38037664  0.57306847  0.05070393    -0.26100
C958        C  0.37362701  0.54880554  0.07672915     0.36300
C959        C  0.38627464  0.48955963  0.98661078     0.05900
F960        F  0.40572053  0.53999238  0.94305002    -0.19900
H961        H  0.39698719  0.58791794  0.98541696     0.15800
F962        F  0.36264894  0.55139413  0.11988234    -0.23600
H963        H  0.36960298  0.50357752  0.07605089     0.17500
C964        C  0.39184455  0.46468125  0.01230128     0.25500
C965        C  0.38866562  0.43789538  0.99111076    -0.12100
C966        C  0.38032180  0.43519959  0.94357916    -0.26200
C967        C  0.37583244  0.45999971  0.91701369     0.36500
C968        C  0.37862528  0.48679659  0.93846081    -0.27800
F969        F  0.40015358  0.46618371  0.05811052    -0.19900
H970        H  0.39237313  0.41911708  0.01225039     0.15800
F971        F  0.36713615  0.45835776  0.87152969    -0.23600
H972        H  0.37372814  0.50538886  0.91796578     0.17600
C973        C  0.22102022  0.74628943  0.98238859    -0.27700
C974        C  0.24331611  0.75819395  0.97763764     0.05900
C975        C  0.24598070  0.78380074  0.95216749     0.25500
C976        C  0.22669778  0.79734348  0.93268725    -0.12200
C977        C  0.20428652  0.78597702  0.93855423    -0.26100
C978        C  0.20159742  0.76003405  0.96321317     0.36300
C979        C  0.26386453  0.74388688  0.99845665     0.05900
F980        F  0.26713141  0.79641313  0.94784806    -0.19900
H981        H  0.22930439  0.81747307  0.91424719     0.15800
F982        F  0.18021452  0.74858953  0.97071595    -0.23600
H983        H  0.21860972  0.72627979  0.00137300     0.17500
C984        C  0.26397690  0.73396526  0.04648964     0.25500
C985        C  0.28373559  0.72059744  0.06505455    -0.12100
C986        C  0.30370419  0.71779343  0.03655505    -0.26200
C987        C  0.30362273  0.72774021  0.98887829     0.36500
C988        C  0.28380298  0.74037063  0.96995519    -0.27800
F989        F  0.24522210  0.73763235  0.07553739    -0.19900
H990        H  0.28352529  0.71248587  0.10192790     0.15800
F991        F  0.32238048  0.72398404  0.95991358    -0.23600
H992        H  0.28394344  0.74717120  0.93237398     0.17600
C993        C  0.26495892  0.61267791  0.17665792    -0.27700
C994        C  0.26308777  0.62320775  0.22392838     0.05900
C995        C  0.28287882  0.63492953  0.24619163     0.25500
C996        C  0.30398312  0.63641180  0.22132674    -0.12200
C997        C  0.30586422  0.62642175  0.17358973    -0.26100
C998        C  0.28608753  0.61422459  0.15160941     0.36300
C999        C  0.24044532  0.62273964  0.24965200     0.05900
F1000       F  0.28154614  0.64617830  0.29125745    -0.19900
H1001       H  0.31871108  0.64630932  0.23909367     0.15800
F1002       F  0.28693836  0.60430027  0.10563189    -0.23600
H1003       H  0.24994288  0.60340972  0.15897137     0.17500
C1004       C  0.22058360  0.63527245  0.22925948     0.25500
C1005       C  0.19997217  0.63718778  0.25596973    -0.12100
C1006       C  0.19877118  0.62666113  0.30347280    -0.26200
C1007       C  0.21837108  0.61288874  0.32283472     0.36500
C1008       C  0.23894260  0.61104941  0.29615033    -0.27800
F1009       F  0.22148708  0.64711559  0.18461556    -0.19900
H1010       H  0.18526678  0.64804918  0.24017578     0.15800
F1011       F  0.21790637  0.60170561  0.36797957    -0.23600
H1012       H  0.25392657  0.60090602  0.31219581     0.17600
C1013       C  0.62676505  0.53658558  0.98297064    -0.27700
C1014       C  0.61969304  0.51475060  0.01409702     0.05900
C1015       C  0.61467168  0.52151766  0.06257845     0.25500
C1016       C  0.61800194  0.54924241  0.07992483    -0.12200
C1017       C  0.62641451  0.57077832  0.04935332    -0.26100
C1018       C  0.63009111  0.56421201  0.00010869     0.36300
C1019       C  0.62096764  0.48475362  0.99724605     0.05900
F1020       F  0.60717488  0.50112481  0.09353506    -0.19900
H1021       H  0.61480030  0.55357338  0.11771048     0.15800
F1022       F  0.63802165  0.58406644  0.96859352    -0.23600
H1023       H  0.63105282  0.53194763  0.94574240     0.17500
C1024       C  0.61183652  0.47612102  0.95227995     0.25500
C1025       C  0.61675335  0.44901053  0.93379437    -0.12100
C1026       C  0.63065751  0.42995211  0.95997467    -0.26200
C1027       C  0.63878619  0.43827771  0.00601141     0.36500
C1028       C  0.63404752  0.46529301  0.02405564    -0.27800
F1029       F  0.59838894  0.49400319  0.92603804    -0.19900
H1030       H  0.60993642  0.44307321  0.89872828     0.15800
F1031       F  0.65235818  0.42090669  0.03299668    -0.23600
H1032       H  0.64164539  0.47148170  0.05828290     0.17600
C1033       C  0.78707085  0.74984572  0.00640002    -0.27700
C1034       C  0.76474966  0.75577158  0.98877393     0.05900
C1035       C  0.76215580  0.77485377  0.95012489     0.25500
C1036       C  0.78163878  0.78840751  0.93066857    -0.12200
C1037       C  0.80389769  0.78264605  0.94885763    -0.26100
C1038       C  0.80652171  0.76283944  0.98632298     0.36300
C1039       C  0.74446620  0.74164778  0.01089803     0.05900
F1040       F  0.74087632  0.78031844  0.93117133    -0.19900
H1041       H  0.77933625  0.80374562  0.90196584     0.15800
F1042       F  0.82770117  0.75744873  0.00585544    -0.23600
H1043       H  0.78941982  0.73560295  0.03665608     0.17500
C1044       C  0.74479879  0.71225107  0.01881516     0.25500
C1045       C  0.72578614  0.69880372  0.03962896    -0.12100
C1046       C  0.70577403  0.71418351  0.05210037    -0.26200
C1047       C  0.70555720  0.74376496  0.04518150     0.36500
C1048       C  0.72487303  0.75736719  0.02490798    -0.27800
F1049       F  0.76313303  0.69624948  0.00450340    -0.19900
H1050       H  0.72645402  0.67598698  0.04401820     0.15800
F1051       F  0.68668894  0.75945627  0.05725110    -0.23600
H1052       H  0.72451264  0.78015367  0.01998725     0.17600
C1053       C  0.78511818  0.61041908  0.24575784    -0.27700
C1054       C  0.76305193  0.61561848  0.26580589     0.05900
C1055       C  0.76163434  0.62356409  0.31476983     0.25500
C1056       C  0.78185478  0.62710245  0.34217929    -0.12200
C1057       C  0.80390548  0.62336926  0.32131042    -0.26100
C1058       C  0.80536377  0.61462063  0.27290848     0.36300
C1059       C  0.74190805  0.61478632  0.23466715     0.05900
F1060       F  0.74085103  0.62958677  0.33551104    -0.19900
H1061       H  0.78026621  0.63412530  0.37928355     0.15800
F1062       F  0.82632028  0.61029186  0.25171075    -0.23600
H1063       H  0.78672572  0.60364068  0.20855572     0.17500
C1064       C  0.74202741  0.62803019  0.18905449     0.25500
C1065       C  0.72185540  0.62887048  0.16104655    -0.12100
C1066       C  0.70093910  0.61742884  0.17837551    -0.26200
C1067       C  0.70072618  0.60376163  0.22346266     0.36500
C1068       C  0.72113938  0.60211505  0.25100824    -0.27800
F1069       F  0.76122023  0.64186494  0.17279096    -0.19900
H1070       H  0.72224220  0.64012794  0.12692220     0.15800
F1071       F  0.68077510  0.59225340  0.24095729    -0.23600
H1072       H  0.72060400  0.59136595  0.28556865     0.17600
C1073       C  0.47961203  0.65010787  0.10953132    -0.27700
C1074       C  0.49127214  0.67571279  0.11938168     0.05900
C1075       C  0.47812957  0.70071950  0.12445161     0.25500
C1076       C  0.45386525  0.69982160  0.12017100    -0.12200
C1077       C  0.44225892  0.67399215  0.11155764    -0.26100
C1078       C  0.45543321  0.64911441  0.10618650     0.36300
C1079       C  0.51706355  0.67584628  0.12336652     0.05900
F1080       F  0.48860893  0.72582812  0.13501179    -0.19900
H1081       H  0.44409094  0.71924441  0.12487747     0.15800
F1082       F  0.44501085  0.62379684  0.09694647    -0.23600
H1083       H  0.48928571  0.63069999  0.10402050     0.17500
C1084       C  0.52864995  0.65439504  0.14924462     0.25500
C1085       C  0.55287875  0.65286354  0.14875637    -0.12100
C1086       C  0.56614248  0.67304362  0.12357480    -0.26200
C1087       C  0.55466854  0.69528314  0.09950036     0.36500
C1088       C  0.53036583  0.69643755  0.09905406    -0.27800
F1089       F  0.51656045  0.63494439  0.17534824    -0.19900
H1090       H  0.56129436  0.63591083  0.16842566     0.15800
F1091       F  0.56683975  0.71530606  0.07483258    -0.23600
H1092       H  0.52195316  0.71296999  0.07840239     0.17600
C1093       C  0.62936039  0.98078782  0.56016538    -0.27700
C1094       C  0.62825415  0.98397816  0.50959443     0.05900
C1095       C  0.62790144  0.95934946  0.48077344     0.25500
C1096       C  0.62967950  0.93252645  0.50191617    -0.12200
C1097       C  0.63164135  0.92938624  0.55227357    -0.26100
C1098       C  0.63084380  0.95382530  0.58139913     0.36300
C1099       C  0.62897778  0.01286246  0.48725813     0.05900
F1100       F  0.62601529  0.96108983  0.43200639    -0.19900
H1101       H  0.62998795  0.91409665  0.47851779     0.15800
F1102       F  0.63280832  0.95187920  0.63012448    -0.23600
H1103       H  0.63006744  0.99925943  0.58336975     0.17500
C1104       C  0.61617722  0.03561115  0.50678639     0.25500
C1105       C  0.61901806  0.06317777  0.48863374    -0.12100
C1106       C  0.63391476  0.06842781  0.44952799    -0.26200
C1107       C  0.64577234  0.04563857  0.42827774     0.36500
C1108       C  0.64360322  0.01826465  0.44746197    -0.27800
F1109       F  0.60087238  0.03123051  0.54333810    -0.19900
H1110       H  0.60960327  0.08050865  0.50517667     0.15800
F1111       F  0.66055758  0.05014911  0.39083073    -0.23600
H1112       H  0.65406914  0.00147388  0.43213232     0.17600
C1113       C  0.72448584  0.74910754  0.51263797    -0.27700
C1114       C  0.74594097  0.76318161  0.51827761     0.05900
C1115       C  0.74698703  0.78779627  0.54691888     0.25500
C1116       C  0.72707488  0.79782307  0.56942480    -0.12200
C1117       C  0.70541303  0.78467834  0.56166774    -0.26100
C1118       C  0.70429215  0.75996340  0.53340933     0.36300
C1119       C  0.76690011  0.75199611  0.49394900     0.05900
F1120       F  0.76678644  0.80340236  0.55066494    -0.19900
H1121       H  0.72841805  0.81718504  0.59040652     0.15800
F1122       F  0.68363221  0.74732376  0.52318879    -0.23600
H1123       H  0.72321301  0.72996870  0.49114811     0.17500
C1124       C  0.78834575  0.75059148  0.51836663     0.25500
C1125       C  0.80733374  0.73782171  0.49641939    -0.12100
C1126       C  0.80501401  0.72497599  0.45111056    -0.26200
C1127       C  0.78394561  0.72665148  0.42606633     0.36500
C1128       C  0.76516721  0.74074257  0.44692125    -0.27800
F1129       F  0.79060626  0.75928709  0.56486391    -0.19900
H1130       H  0.82339952  0.73595062  0.51654796     0.15800
F1131       F  0.78141063  0.71411013  0.38222524    -0.23600
H1132       H  0.74900955  0.74194186  0.42701352     0.17600
C1133       C  0.72341092  0.87656575  0.76243552    -0.27700
C1134       C  0.74332085  0.88689418  0.73873927     0.05900
C1135       C  0.74153007  0.89461051  0.68978516     0.25500
C1136       C  0.72048703  0.89117722  0.66497704    -0.12200
C1137       C  0.70071958  0.88004674  0.68831230    -0.26100
C1138       C  0.70234234  0.87324744  0.73776797     0.36300
C1139       C  0.76606172  0.88752279  0.76454593     0.05900
F1140       F  0.76015570  0.90531649  0.66575048    -0.19900
H1141       H  0.71985844  0.89665763  0.62706012     0.15800
F1142       F  0.68388164  0.86236461  0.76211594    -0.23600
H1143       H  0.72435613  0.86999953  0.79981948     0.17500
C1144       C  0.76785906  0.89805359  0.81200165     0.25500
C1145       C  0.78854554  0.89504180  0.83813046    -0.12100
C1146       C  0.80799140  0.88176216  0.81744233    -0.26200
C1147       C  0.80658614  0.87266670  0.76894802     0.36500
C1148       C  0.78581053  0.87539950  0.74309574    -0.27800
F1149       F  0.74949174  0.91093715  0.83342670    -0.19900
H1150       H  0.78913294  0.90251244  0.87508189     0.15800
F1151       F  0.82481870  0.85971120  0.74708677    -0.23600
H1152       H  0.78488641  0.86680528  0.70687803     0.17600
C1153       C  0.62368206  0.77444200  0.82168198    -0.27700
C1154       C  0.62971217  0.74565233  0.81704668     0.05900
C1155       C  0.63587922  0.73527348  0.77127267     0.25500
C1156       C  0.63707857  0.75357238  0.73166115    -0.12200
C1157       C  0.63182329  0.78263518  0.73634889    -0.26100
C1158       C  0.62460588  0.79278093  0.78179301     0.36300
C1159       C  0.63028659  0.72685413  0.86021075     0.05900
F1160       F  0.64044841  0.70729158  0.76463680    -0.19900
H1161       H  0.64208327  0.74481015  0.69705937     0.15800
F1162       F  0.61865387  0.82038477  0.78796655    -0.23600
H1163       H  0.61870570  0.78288805  0.85653939     0.17500
C1164       C  0.65010842  0.71053108  0.87070585     0.25500
C1165       C  0.65119629  0.69445434  0.91305869    -0.12100
C1166       C  0.63277094  0.69462171  0.94636278    -0.26200
C1167       C  0.61257058  0.71011324  0.93500814     0.36500
C1168       C  0.61142822  0.72606465  0.89239447    -0.27800
F1169       F  0.66908848  0.71155808  0.84164312    -0.19900
H1170       H  0.66712221  0.68319831  0.92110186     0.15800
F1171       F  0.59417622  0.71057547  0.96569321    -0.23600
H1172       H  0.59591076  0.73824831  0.88488016     0.17600
C1173       C  0.61930313  0.77349283  0.38939390    -0.27700
C1174       C  0.63997010  0.77032505  0.36285547     0.05900
C1175       C  0.65976165  0.78582929  0.37739993     0.25500
C1176       C  0.65905238  0.80301805  0.41859142    -0.12200
C1177       C  0.63876923  0.80489362  0.44670189    -0.26100
C1178       C  0.61867996  0.79038448  0.43101265     0.36300
C1179       C  0.64080527  0.75075395  0.32048931     0.05900
F1180       F  0.68024641  0.78311215  0.35357022    -0.19900
H1181       H  0.67488483  0.81353936  0.43004438     0.15800
F1182       F  0.59859043  0.79178340  0.45659187    -0.23600
H1183       H  0.60363850  0.76249621  0.37829575     0.17500
C1184       C  0.63114222  0.72322360  0.32263744     0.25500
C1185       C  0.63139589  0.70547783  0.28194466    -0.12100
C1186       C  0.64143394  0.71463625  0.23836124    -0.26200
C1187       C  0.65187613  0.74180909  0.23692106     0.36500
C1188       C  0.65129986  0.75960631  0.27728623    -0.27800
F1189       F  0.62165974  0.71330051  0.36423167    -0.19900
H1190       H  0.62340580  0.68467395  0.28441266     0.15800
F1191       F  0.66243166  0.75156078  0.19631132    -0.23600
H1192       H  0.65873735  0.78068903  0.27433841     0.17600
C1193       C  0.38620020  0.98341950  0.56325826    -0.27700
C1194       C  0.38226997  0.98954877  0.51408616     0.05900
C1195       C  0.37690321  0.96698171  0.48276514     0.25500
C1196       C  0.37482959  0.93932289  0.50031267    -0.12200
C1197       C  0.37772438  0.93317824  0.54972085    -0.26100
C1198       C  0.38391891  0.95555982  0.58104170     0.36300
C1199       C  0.38168021  0.01940012  0.49582108     0.05900
F1200       F  0.37214571  0.97183000  0.43547823    -0.19900
H1201       H  0.37002522  0.92277591  0.47502474     0.15800
F1202       F  0.38700012  0.95081656  0.62894788    -0.23600
H1203       H  0.39056822  0.00034403  0.58815882     0.17500
C1204       C  0.36830736  0.04005948  0.51955831     0.25500
C1205       C  0.36486820  0.06669709  0.49852355    -0.12100
C1206       C  0.37448909  0.07352839  0.45313543    -0.26200
C1207       C  0.38886967  0.05343796  0.43051524     0.36500
C1208       C  0.39245795  0.02673682  0.45179733    -0.27800
F1209       F  0.35729253  0.03399534  0.56168110    -0.19900
H1210       H  0.35382295  0.08166716  0.51721847     0.15800
F1211       F  0.39929378  0.05941243  0.38775137    -0.23600
H1212       H  0.40325146  0.01146495  0.43322447     0.17600
C1213       C  0.37121662  0.73278556  0.75477808    -0.27700
C1214       C  0.37171728  0.74341484  0.80202906     0.05900
C1215       C  0.37136290  0.77299719  0.80915652     0.25500
C1216       C  0.37106652  0.79158744  0.76966175    -0.12200
C1217       C  0.37089582  0.78106257  0.72222225    -0.26100
C1218       C  0.37087578  0.75130571  0.71521129     0.36300
C1219       C  0.37333367  0.72389591  0.84401726     0.05900
F1220       F  0.37099902  0.78389518  0.85452526    -0.19900
H1221       H  0.37085192  0.81423030  0.77621449     0.15800
F1222       F  0.37127070  0.73997293  0.67012257    -0.23600
H1223       H  0.37162787  0.71009975  0.74851353     0.17500
C1224       C  0.35602212  0.70350014  0.85348249     0.25500
C1225       C  0.35630811  0.68816198  0.89691295    -0.12100
C1226       C  0.37386416  0.69285410  0.93156929    -0.26200
C1227       C  0.39220412  0.71155216  0.91985864     0.36500
C1228       C  0.39180123  0.72692557  0.87669491    -0.27800
F1229       F  0.33799968  0.69983649  0.82242275    -0.19900
H1230       H  0.34197146  0.67393539  0.90465577     0.15800
F1231       F  0.40996732  0.71624153  0.95114019    -0.23600
H1232       H  0.40557843  0.74203780  0.86947688     0.12800
C1233       C  0.35794128  0.80021410  0.35436567    -0.27700
C1234       C  0.37422789  0.77835320  0.34790123     0.05900
C1235       C  0.39153087  0.77454045  0.38315469     0.25500
C1236       C  0.39136152  0.79072185  0.42551052    -0.12200
C1237       C  0.37397328  0.81111808  0.43382222    -0.26100
C1238       C  0.35777332  0.81649129  0.39679401     0.36300
C1239       C  0.37280725  0.75935235  0.30493699     0.05900
F1240       F  0.40844808  0.75485618  0.37701549    -0.19900
H1241       H  0.40430405  0.78626030  0.45286701     0.15800
F1242       F  0.34107812  0.83649956  0.40236304    -0.23600
H1243       H  0.34468474  0.80391494  0.32734576     0.17500
C1244       C  0.37312538  0.72958788  0.30996238     0.25500
C1245       C  0.37222715  0.71198721  0.26916731    -0.12100
C1246       C  0.37064384  0.72358560  0.22252156    -0.26200
C1247       C  0.36976155  0.75337976  0.21767356     0.36500
C1248       C  0.37081741  0.77094654  0.25845298    -0.27800
F1249       F  0.37379735  0.71745686  0.35439409    -0.19900
H1250       H  0.37265380  0.68920740  0.27413163     0.15800
F1251       F  0.36860783  0.76571020  0.17346544    -0.23600
H1252       H  0.37051282  0.79373853  0.25362646     0.17600
C1253       C  0.52926703  0.85996757  0.60126068    -0.27700
C1254       C  0.51657491  0.83490051  0.60878726     0.05900
C1255       C  0.52846078  0.80938989  0.61718208     0.25500
C1256       C  0.55271510  0.80907618  0.61841652    -0.12200
C1257       C  0.56547043  0.83421212  0.61159345    -0.26100
C1258       C  0.55352299  0.85970979  0.60256020     0.36300
C1259       C  0.49094292  0.83545668  0.60821642     0.05900
F1260       F  0.51657486  0.78496631  0.62570942    -0.19900
H1261       H  0.56150905  0.78926554  0.62578904     0.15800
F1262       F  0.56523901  0.88429708  0.59425920    -0.23600
H1263       H  0.52034496  0.87972777  0.59412494     0.17500
C1264       C  0.47867243  0.85351931  0.63941202     0.25500
C1265       C  0.45440625  0.85330449  0.63946192    -0.12100
C1266       C  0.44203051  0.83497532  0.60866600    -0.26200
C1267       C  0.45434753  0.81726329  0.57687402     0.36500
C1268       C  0.47862039  0.81754005  0.57677257    -0.27800
F1269       F  0.49015532  0.87069436  0.67083631    -0.19900
H1270       H  0.44527091  0.86709826  0.66429054     0.15800
F1271       F  0.44296556  0.80020037  0.54514278    -0.23600
H1272       H  0.48785418  0.80384023  0.55196595     0.17600
C1273       C  0.26234325  0.78786007  0.51733980    -0.27700
C1274       C  0.26303623  0.75887603  0.50685391     0.05900
C1275       C  0.28353884  0.74355683  0.51616553     0.25500
C1276       C  0.30327344  0.75757792  0.53411263    -0.12200
C1277       C  0.30265240  0.78689349  0.54337490    -0.26100
C1278       C  0.28168155  0.80172767  0.53569697     0.36300
C1279       C  0.24252174  0.74574448  0.48375780     0.05900
F1280       F  0.28449465  0.71520170  0.50774272    -0.19900
H1281       H  0.31910215  0.74566620  0.53984679     0.15800
F1282       F  0.27991971  0.83008714  0.54351144    -0.23600
H1283       H  0.24692873  0.80019364  0.50962891     0.17500
C1284       C  0.22006891  0.75114445  0.50165544     0.25500
C1285       C  0.20063507  0.74070516  0.47746112    -0.12100
C1286       C  0.20323848  0.72392382  0.43605975    -0.26200
C1287       C  0.22559915  0.71867234  0.41778631     0.36500
C1288       C  0.24508198  0.72979034  0.44127462    -0.27800
F1289       F  0.21694959  0.76563323  0.54354654    -0.19900
H1290       H  0.18358443  0.74418669  0.49297325     0.15800
F1291       F  0.22857485  0.70244086  0.37774720    -0.23600
H1292       H  0.26216726  0.72601798  0.42620618     0.17600
C1293       C  0.22266223  0.90020650  0.74341152    -0.27700
C1294       C  0.24347249  0.88812461  0.76046691     0.05900
C1295       C  0.24340112  0.87519655  0.80638672     0.25500
C1296       C  0.22309927  0.87431947  0.83391033    -0.12200
C1297       C  0.20218771  0.88524343  0.81606551    -0.26100
C1298       C  0.20209624  0.89837256  0.77048811     0.36300
C1299       C  0.26488061  0.88775015  0.72989951     0.05900
F1300       F  0.26257079  0.86185337  0.82350995    -0.19900
H1301       H  0.22344296  0.86339488  0.86893304     0.15800
F1302       F  0.18216603  0.90932201  0.75218731    -0.23600
H1303       H  0.22221887  0.91077773  0.70855925     0.17500
C1304       C  0.26384951  0.88025036  0.68062438     0.25500
C1305       C  0.28426743  0.87759442  0.65351259    -0.12100
C1306       C  0.30614408  0.88154737  0.67499250    -0.26200
C1307       C  0.30723212  0.88965598  0.72381862     0.36500
C1308       C  0.28680312  0.89318026  0.75055666    -0.27800
F1309       F  0.24326274  0.87376251  0.65930870    -0.19900
H1310       H  0.28299916  0.87090758  0.61600734     0.15800
F1311       F  0.32804137  0.89395742  0.74578872    -0.23600
H1312       H  0.28818921  0.89968109  0.78821644     0.17600
loop_ 
_geom_bond_atom_site_label_1 
_geom_bond_atom_site_label_2 
_geom_bond_distance 
_geom_bond_site_symmetry_2 
_ccdc_geom_bond_type 
O1           C16   1.267       .  A
O1           Al9   1.924       .  S
C2           O12   1.266       .  A
C2            O3   1.259       .  A
C2         C1306   1.481       .  S
O3           Al5   1.893       .  S
O4            C6   1.270       .  A
O4           Al5   1.952       .  S
Al5          O13   1.967       .  S
Al5          O15   1.880       .  S
Al5          O14   1.781       .  S
C6           O19   1.256       .  A
C6         C1217   1.489       .  S
O7           C17   1.270       .  A
O7           Al9   1.953       .  S
O8           C21   1.265       .  A
O8          Al18   1.942       .  S
Al9          O22   1.885       .  S
Al9          O19   1.875       .  S
Al9          O14   1.779       .  S
O10          C17   1.255       .  A
O10         Al18   1.853       .  S
O11          C20   1.261       .  A
O11         Al18   1.876       .  S
O12         Al18   1.933       .  S
O13          C20   1.274       .  A
O14         Al18   1.771       .  S
O15          C16   1.260       .  A
C16        C1266   1.474       .  S
C17        C1277   1.478       .  S
C20        C1197   1.494       .  S
C21          O22   1.256       .  A
C21        C1237   1.489       .  S
O23          C38   1.258       .  A
O23         Al31   1.893       .  S
C24          O34   1.262       .  A
C24          O25   1.266       .  A
C24        C1137   1.489       .  S
O25         Al27   1.934       .  S
O26          C28   1.256       .  A
O26         Al27   1.854       .  S
Al27         O35   1.875       .  S
Al27         O37   1.936       .  S
Al27         O36   1.768       .  S
C28          O41   1.270       .  A
C28        C1117   1.470       .  S
O29          C39   1.258       .  A
O29         Al31   1.879       .  S
O30          C43   1.261       .  A
O30         Al40   1.880       .  S
Al31         O44   1.928       .  S
Al31         O41   1.947       .  S
Al31         O36   1.773       .  S
O32          C39   1.268       .  A
O32         Al40   1.949       .  S
O33          C42   1.274       .  A
O33         Al40   1.963       .  S
O34         Al40   1.901       .  S
O35          C42   1.260       .  A
O36         Al40   1.773       .  S
O37          C38   1.265       .  A
C38        C1177   1.485       .  S
C39        C1157   1.490       .  S
C42        C1097   1.485       .  S
C43          O44   1.268       .  A
C43        C1257   1.474       .  S
O45          C60   1.264       .  A
O45         Al53   1.919       .  S
C46          O56   1.265       .  A
C46          O47   1.259       .  A
C46        C1066   1.475       .  S
O47         Al49   1.891       .  S
O48          C50   1.270       .  A
O48         Al49   1.950       .  S
Al49         O57   1.956       .  S
Al49         O59   1.891       .  S
Al49         O58   1.783       .  S
C50          O63   1.258       .  A
C50        C1186   1.490       .  S
O51          C61   1.265       .  A
O51         Al53   1.932       .  S
O52          C65   1.267   1_554  A
O52         Al62   1.935       .  S
Al53         O66   1.890       .  S
Al53         O63   1.878       .  S
Al53         O58   1.778       .  S
O54          C61   1.256       .  A
O54         Al62   1.866       .  S
O55          C64   1.258       .  A
O55         Al62   1.877       .  S
O56         Al62   1.926       .  S
O57          C64   1.272       .  A
O58         Al62   1.775       .  S
O59          C60   1.262       .  A
C60        C1086   1.479       .  S
C61        C1046   1.474       .  S
C64        C1017   1.492       .  S
C65          O66   1.259   1_556  A
C65        C1166   1.484       .  S
O67          C82   1.261   1_554  A
O67         Al75   1.897       .  S
C68          O78   1.260       .  A
C68          O69   1.266       .  A
C68         C997   1.487       .  S
O69         Al71   1.934       .  S
O70          C72   1.258       .  A
O70         Al71   1.885       .  S
Al71         O79   1.894       .  S
Al71         O81   1.934   1_554  S
Al71         O80   1.778       .  S
C72          O85   1.267       .  A
C72         C986   1.462       .  S
O73          C83   1.260       .  A
O73         Al75   1.894       .  S
O74          C87   1.263       .  A
O74         Al84   1.889       .  S
Al75         O88   1.932       .  S
Al75         O85   1.933       .  S
Al75         O80   1.776       .  S
O76          C83   1.267       .  A
O76         Al84   1.937       .  S
O77          C86   1.270       .  A
O77         Al84   1.956       .  S
O78         Al84   1.890       .  S
O79          C86   1.261       .  A
O80         Al84   1.777       .  S
O81          C82   1.265       .  A
C82        C1226   1.490       .  S
C83        C1246   1.489       .  S
C86         C957   1.484       .  S
C87          O88   1.268       .  A
C87        C1077   1.480       .  S
O89         C104   1.264       .  A
O89         Al97   1.920       .  S
C90         O100   1.265       .  A
C90          O91   1.259       .  A
C90        C1297   1.478       .  S
O91         Al93   1.896       .  S
O92          C94   1.272       .  A
O92         Al93   1.961       .  S
Al93        O101   1.960       .  S
Al93        O103   1.890       .  S
Al93        O102   1.780       .  S
C94         O107   1.257       .  A
C94         C906   1.490       .  S
O95         C105   1.266       .  A
O95         Al97   1.938       .  S
O96         C109   1.266       .  A
O96        Al106   1.941       .  S
Al97        O110   1.874       .  S
Al97        O107   1.866       .  S
Al97        O102   1.773       .  S
O98         C105   1.258       .  A
O98        Al106   1.874       .  S
O99         C108   1.259       .  A
O99        Al106   1.876       .  S
O100       Al106   1.925       .  S
O101        C108   1.274       .  A
O102       Al106   1.775       .  S
O103        C104   1.260       .  A
C104        C937   1.479       .  S
C105        C977   1.475       .  S
C108        C877   1.492       .  S
C109        O110   1.255       .  A
C109        C926   1.480   1_556  S
O111        C126   1.261   1_556  A
O111       Al119   1.890       .  S
C112        O122   1.258       .  A
C112        O113   1.266       .  A
C112       C1146   1.488       .  S
O113       Al115   1.935       .  S
O114        C116   1.258       .  A
O114       Al115   1.883       .  S
Al115       O123   1.879       .  S
Al115       O125   1.943   1_556  S
Al115       O124   1.773       .  S
C116        O129   1.265       .  A
C116       C1037   1.465       .  S
O117        C127   1.256       .  A
O117       Al119   1.868       .  S
O118        C131   1.260       .  A
O118       Al128   1.889       .  S
Al119       O132   1.922       .  S
Al119       O129   1.921       .  S
Al119       O124   1.774       .  S
O120        C127   1.269       .  A
O120       Al128   1.945       .  S
O121        C130   1.271       .  A
O121       Al128   1.946       .  S
O122       Al128   1.889       .  S
O123        C130   1.260       .  A
O124       Al128   1.776       .  S
O125        C126   1.268       .  A
C126        C857   1.487       .  S
C127        C837   1.484       .  S
C130        C817   1.489       .  S
C131        O132   1.264       .  A
C131        C946   1.477       .  S
O133        C148   1.261       .  A
O133       Al141   1.905       .  S
C134        O144   1.261       .  A
C134        O135   1.261       .  A
C134       C1057   1.480       .  S
O135       Al137   1.902       .  S
O136        C138   1.269       .  A
O136       Al137   1.947       .  S
Al137       O145   1.946       .  S
Al137       O147   1.897       .  S
Al137       O146   1.778       .  S
C138        O151   1.258       .  A
C138        C866   1.489       .  S
O139        C149   1.262       .  A
O139       Al141   1.910       .  S
O140        C153   1.263       .  A
O140       Al150   1.922       .  S
Al141       O154   1.892       .  S
Al141       O151   1.875       .  S
Al141       O146   1.779       .  S
O142        C149   1.259       .  A
O142       Al150   1.890       .  S
O143        C152   1.262       .  A
O143       Al150   1.887       .  S
O144       Al150   1.912       .  S
O145        C152   1.271       .  A
O146       Al150   1.778       .  S
O147        C148   1.261       .  A
C148        C806   1.480       .  S
C149       C1126   1.455       .  S
C152        C777   1.490       .  S
C153        O154   1.260       .  A
C153        C846   1.481       .  S
O155        C170   1.262       .  A
O155       Al163   1.901       .  S
C156        O166   1.260       .  A
C156        O157   1.264       .  A
C156       C1006   1.485       .  S
O157       Al159   1.927       .  S
O158        C160   1.257       .  A
O158       Al159   1.877       .  S
Al159       O167   1.880       .  S
Al159       O169   1.937       .  S
Al159       O168   1.771       .  S
C160        O173   1.267       .  A
C160       C1286   1.463       .  S
O161        C171   1.259       .  A
O161       Al163   1.879       .  S
O162        C175   1.262       .  A
O162       Al172   1.892       .  S
Al163       O176   1.922       .  S
Al163       O173   1.932       .  S
Al163       O168   1.778       .  S
O164        C171   1.266       .  A
O164       Al172   1.930       .  S
O165        C174   1.270       .  A
O165       Al172   1.946       .  S
O166       Al172   1.899       .  S
O167        C174   1.261       .  A
O168       Al172   1.776       .  S
O169        C170   1.266       .  A
C170        C897   1.486       .  S
C171        C917   1.475       .  S
C174        C757   1.487       .  S
C175        O176   1.265       .  A
C175        C797   1.473       .  S
O177        C192   1.266       .  A
O177       Al185   1.926       .  S
C178        O188   1.264       .  A
C178        O179   1.258       .  A
C178        C677   1.482       .  S
O179       Al181   1.897       .  S
O180        C182   1.269       .  A
O180       Al181   1.947       .  S
Al181       O189   1.960       .  S
Al181       O191   1.881       .  S
Al181       O190   1.783       .  S
C182        O195   1.258       .  A
C182        C706   1.490       .  S
O183        C193   1.270       .  A
O183       Al185   1.948       .  S
O184        C197   1.265       .  A
O184       Al194   1.939   1_554  S
Al185       O198   1.896       .  S
Al185       O195   1.878       .  S
Al185       O190   1.781       .  S
O186        C193   1.256       .  A
O186       Al194   1.855       .  S
O187        C196   1.260       .  A
O187       Al194   1.872       .  S
O188       Al194   1.930       .  S
O189        C196   1.274       .  A
O190       Al194   1.775       .  S
O191        C192   1.259       .  A
C192        C737   1.479       .  S
C193        C657   1.475       .  S
C196       C1026   1.489       .  S
C197        O198   1.258   1_554  A
C197        C726   1.490       .  S
O199        C214   1.259   1_556  A
O199       Al207   1.892       .  S
C200        O210   1.262       .  A
C200        O201   1.272       .  A
C200        C637   1.500       .  S
O201       Al203   1.962       .  S
O202        C204   1.256       .  A
O202       Al203   1.867       .  S
Al203       O211   1.891       .  S
Al203       O213   1.963       .  S
Al203       O212   1.773       .  S
C204        O217   1.269       .  A
C204        C626   1.468       .  S
O205        C215   1.258       .  A
O205       Al207   1.882       .  S
O206        C219   1.263       .  A
O206       Al216   1.891       .  S
Al207       O220   1.934       .  S
Al207       O217   1.937       .  S
Al207       O212   1.773       .  S
O208        C215   1.270       .  A
O208       Al216   1.960       .  S
O209        C218   1.272       .  A
O209       Al216   1.962       .  S
O210       Al216   1.894       .  S
O211        C218   1.261       .  A
O212       Al216   1.776       .  S
O213        C214   1.271   1_556  A
C214        C606   1.497       .  S
C215        C577   1.496       .  S
C218        C966   1.487       .  S
C219        O220   1.269       .  A
C219        C746   1.483       .  S
O221        C236   1.268       .  A
O221       Al229   1.940       .  S
C222        O232   1.267       .  A
C222        O223   1.257       .  A
C222        C537   1.485       .  S
O223       Al225   1.885       .  S
O224        C226   1.274       .  A
O224       Al225   1.968       .  S
Al225       O233   1.966       .  S
Al225       O235   1.873       .  S
Al225       O234   1.777       .  S
C226        O239   1.260       .  A
C226        C597   1.501       .  S
O227        C237   1.269       .  A
O227       Al229   1.952       .  S
O228        C241   1.269       .  A
O228       Al238   1.948       .  S
Al229       O242   1.893       .  S
Al229       O239   1.884       .  S
Al229       O234   1.779       .  S
O230        C237   1.253       .  A
O230       Al238   1.858       .  S
O231        C240   1.257       .  A
O231       Al238   1.870       .  S
O232       Al238   1.939       .  S
O233        C240   1.274       .  A
O234       Al238   1.770       .  S
O235        C236   1.257       .  A
C236        C517   1.482       .  S
C237        C566   1.476       .  S
C240       C1206   1.492       .  S
C241        O242   1.261       .  A
C241        C586   1.491       .  S
O243        C258   1.260       .  A
O243       Al251   1.896       .  S
C244        O254   1.261       .  A
C244        O245   1.267       .  A
C244        C477   1.492       .  S
O245       Al247   1.943       .  S
O246        C248   1.260       .  A
O246       Al247   1.880       .  S
Al247       O255   1.897       .  S
Al247       O257   1.937       .  S
Al247       O256   1.778       .  S
C248        O261   1.266       .  A
C248        C506   1.463       .  S
O249        C259   1.258       .  A
O249       Al251   1.891       .  S
O250        C263   1.263       .  A
O250       Al260   1.900       .  S
Al251       O264   1.919       .  S
Al251       O261   1.930       .  S
Al251       O256   1.777       .  S
O252        C259   1.266       .  A
O252       Al260   1.938       .  S
O253        C262   1.270       .  A
O253       Al260   1.948       .  S
O254       Al260   1.897       .  S
O255        C262   1.262       .  A
O256       Al260   1.782       .  S
O257        C258   1.265       .  A
C258        C697   1.492       .  S
C259        C717   1.493       .  S
C262       C1106   1.476       .  S
C263        O264   1.267       .  A
C263        C526   1.482       .  S
O265        C280   1.268       .  A
O265       Al273   1.932       .  S
C266        O276   1.267       .  A
C266        O267   1.261       .  A
C266        C686   1.481       .  S
O267       Al269   1.897       .  S
O268        C270   1.270       .  A
O268       Al269   1.957       .  S
Al269       O277   1.963       .  S
Al269       O279   1.889       .  S
Al269       O278   1.782       .  S
C270        O283   1.257       .  A
C270        C437   1.491       .  S
O271        C281   1.270       .  A
O271       Al273   1.954       .  S
O272        C285   1.268       .  A
O272       Al282   1.962       .  S
Al273       O286   1.873       .  S
Al273       O283   1.872       .  S
Al273       O278   1.771       .  S
O274        C281   1.254       .  A
O274       Al282   1.855       .  S
O275        C284   1.259       .  A
O275       Al282   1.870       .  S
O276       Al282   1.935       .  S
O277        C284   1.274       .  A
O278       Al282   1.774       .  S
O279        C280   1.262       .  A
C280        C457   1.478       .  S
C281        C497   1.478       .  S
C284        C786   1.487       .  S
C285        O286   1.254       .  A
C285        C426   1.491       .  S
O287        C302   1.259       .  A
O287       Al295   1.886       .  S
C288        O298   1.262       .  A
C288        O289   1.267       .  A
C288        C646   1.500       .  S
O289       Al291   1.942       .  S
O290        C292   1.254       .  A
O290       Al291   1.870       .  S
Al291       O299   1.869       .  S
Al291       O301   1.954       .  S
Al291       O300   1.772       .  S
C292        O305   1.265       .  A
C292        C557   1.453       .  S
O293        C303   1.258       .  A
O293       Al295   1.873       .  S
O294        C307   1.264       .  A
O294       Al304   1.905       .  S
Al295       O308   1.921       .  S
Al295       O305   1.933       .  S
Al295       O300   1.775       .  S
O296        C303   1.272       .  A
O296       Al304   1.956       .  S
O297        C306   1.274       .  A
O297       Al304   1.964       .  S
O298       Al304   1.909       .  S
O299        C306   1.258       .  A
O300       Al304   1.773       .  S
O301        C302   1.271       .  A
C302        C386   1.489       .  S
C303        C397   1.489       .  S
C306        C766   1.491       .  S
C307        O308   1.265       .  A
C307        C466   1.487       .  S
O309        C324   1.265       .  A
O309       Al317   1.915       .  S
C310        O320   1.263       .  A
C310        O311   1.261       .  A
C310        C546   1.478       .  S
O311       Al313   1.897       .  S
O312        C314   1.266       .  A
O312       Al313   1.939       .  S
Al313       O321   1.955       .  S
Al313       O323   1.878       .  S
Al313       O322   1.785       .  S
C314        O327   1.257       .  A
C314        C377   1.490       .  S
O315        C325   1.268       .  A
O315       Al317   1.935       .  S
O316        C329   1.261       .  A
O316       Al326   1.920   1_556  S
Al317       O330   1.902       .  S
Al317       O327   1.883       .  S
Al317       O322   1.783       .  S
O318        C325   1.257       .  A
O318       Al326   1.860       .  S
O319        C328   1.260       .  A
O319       Al326   1.879       .  S
O320       Al326   1.925       .  S
O321        C328   1.271       .  A
O322       Al326   1.776       .  S
O323        C324   1.261       .  A
C324        C366   1.471       .  S
C325        C617   1.470       .  S
C328        C886   1.491       .  S
C329        O330   1.257   1_556  A
C329        C406   1.484       .  S
O331        C346   1.260   1_554  A
O331       Al339   1.891       .  S
C332        O342   1.260       .  A
C332        O333   1.266       .  A
C332        C486   1.491       .  S
O333       Al335   1.934       .  S
O334        C336   1.257       .  A
O334       Al335   1.879       .  S
Al335       O343   1.880       .  S
Al335       O345   1.946       .  S
Al335       O344   1.776       .  S
C336        O349   1.264       .  A
C336        C666   1.458       .  S
O337        C347   1.259       .  A
O337       Al339   1.881       .  S
O338        C351   1.262       .  A
O338       Al348   1.894       .  S
Al339       O352   1.904       .  S
Al339       O349   1.915       .  S
Al339       O344   1.778       .  S
O340        C347   1.270       .  A
O340       Al348   1.949       .  S
O341        C350   1.272       .  A
O341       Al348   1.958       .  S
O342       Al348   1.895       .  S
O343        C350   1.260       .  A
O344       Al348   1.777       .  S
O345        C346   1.268   1_554  A
C346        C446   1.490       .  S
C347        C417   1.486       .  S
C350        C826   1.493       .  S
C351        O352   1.261       .  A
C351        C357   1.476       .  S
C353        C354   1.403       .  A
C353        C358   1.395       .  A
C353        H363   1.082       .  S
C354        C359   1.479   1_655  S
C354        C355   1.407       .  A
C355        C356   1.394       .  A
C355        F360   1.358       .  S
C356        C357   1.403       .  A
C356        H361   1.083       .  S
C357        C358   1.410       .  A
C358        F362   1.358       .  S
C359        C364   1.408       .  A
C359        C368   1.404       .  A
C364        C365   1.396       .  A
C364        F369   1.357       .  S
C365        C366   1.404       .  A
C365        H370   1.083       .  S
C366        C367   1.406       .  A
C367        C368   1.393       .  A
C367        F371   1.358       .  S
C368        H372   1.082       .  S
C373        C374   1.401       .  A
C373        C378   1.399       .  A
C373        H383   1.083       .  S
C374        C379   1.485       .  S
C374        C375   1.408       .  A
C375        C376   1.404       .  A
C375        F380   1.357       .  S
C376        C377   1.407       .  A
C376        H381   1.083       .  S
C377        C378   1.413       .  A
C378        F382   1.357       .  S
C379        C384   1.406       .  A
C379        C388   1.402       .  A
C384        C385   1.401       .  A
C384        F389   1.357       .  S
C385        C386   1.407       .  A
C385        H390   1.082       .  S
C386        C387   1.414       .  A
C387        C388   1.401       .  A
C387        F391   1.358       .  S
C388        H392   1.083       .  S
C393        C394   1.403       .  A
C393        C398   1.397       .  A
C393        H403   1.083       .  S
C394        C399   1.491       .  S
C394        C395   1.410       .  A
C395        C396   1.404       .  A
C395        F400   1.357       .  S
C396        C397   1.406       .  A
C396        H401   1.082       .  S
C397        C398   1.413       .  A
C398        F402   1.358       .  S
C399        C404   1.409       .  A
C399        C408   1.404       .  A
C404        C405   1.404       .  A
C404        F409   1.357       .  S
C405        C406   1.406       .  A
C405        H410   1.083       .  S
C406        C407   1.409       .  A
C407        C408   1.397       .  A
C407        F411   1.358       .  S
C408        H412   1.083       .  S
C413        C414   1.408       .  A
C413        C418   1.403       .  A
C413        H423   1.083       .  S
C414        C419   1.490       .  S
C414        C415   1.405       .  A
C415        C416   1.401       .  A
C415        F420   1.357       .  S
C416        C417   1.409       .  A
C416        H421   1.083       .  S
C417        C418   1.406       .  A
C418        F422   1.357       .  S
C419        C424   1.410       .  A
C419        C428   1.400       .  A
C424        C425   1.407       .  A
C424        F429   1.357       .  S
C425        C426   1.407       .  A
C425        H430   1.083       .  S
C426        C427   1.415       .  A
C427        C428   1.395       .  A
C427        F431   1.358       .  S
C428        H432   1.083       .  S
C433        C434   1.409       .  A
C433        C438   1.405       .  A
C433        H443   1.083       .  S
C434        C439   1.490       .  S
C434        C435   1.404       .  A
C435        C436   1.397       .  A
C435        F440   1.358       .  S
C436        C437   1.410       .  A
C436        H441   1.083       .  S
C437        C438   1.408       .  A
C438        F442   1.357       .  S
C439        C444   1.405       .  A
C439        C448   1.406       .  A
C444        C445   1.400       .  A
C444        F449   1.357       .  S
C445        C446   1.409       .  A
C445        H450   1.082       .  S
C446        C447   1.410       .  A
C447        C448   1.402       .  A
C447        F451   1.357       .  S
C448        H452   1.083       .  S
C453        C454   1.407       .  A
C453        C458   1.403       .  A
C453        H463   1.083       .  S
C454        C459   1.487   1_655  S
C454        C455   1.407       .  A
C455        C456   1.397       .  A
C455        F460   1.357       .  S
C456        C457   1.403       .  A
C456        H461   1.083       .  S
C457        C458   1.407       .  A
C458        F462   1.358       .  S
C459        C464   1.406       .  A
C459        C468   1.405       .  A
C464        C465   1.401       .  A
C464        F469   1.358       .  S
C465        C466   1.409       .  A
C465        H470   1.083       .  S
C466        C467   1.408       .  A
C467        C468   1.399       .  A
C467        F471   1.357       .  S
C468        H472   1.083       .  S
C473        C474   1.407       .  A
C473        C478   1.405       .  A
C473        H483   1.083       .  S
C474        C479   1.494       .  S
C474        C475   1.408       .  A
C475        C476   1.399       .  A
C475        F480   1.358       .  S
C476        C477   1.407       .  A
C476        H481   1.083       .  S
C477        C478   1.411       .  A
C478        F482   1.357       .  S
C479        C484   1.407       .  A
C479        C488   1.407       .  A
C484        C485   1.401       .  A
C484        F489   1.357       .  S
C485        C486   1.408       .  A
C485        H490   1.083       .  S
C486        C487   1.411       .  A
C487        C488   1.402       .  A
C487        F491   1.357       .  S
C488        H492   1.083       .  S
C493        C494   1.406       .  A
C493        C498   1.399       .  A
C493        H503   1.083       .  S
C494        C499   1.475       .  S
C494        C495   1.400       .  A
C495        C496   1.390       .  A
C495        F500   1.358       .  S
C496        C497   1.410       .  A
C496        H501   1.084       .  S
C497        C498   1.405       .  A
C498        F502   1.357       .  S
C499        C504   1.405       .  A
C499        C508   1.404       .  A
C504        C505   1.395       .  A
C504        F509   1.357       .  S
C505        C506   1.401       .  A
C505        H510   1.083       .  S
C506        C507   1.405       .  A
C507        C508   1.395       .  A
C507        F511   1.358       .  S
C508        H512   1.083       .  S
C513        C514   1.408       .  A
C513        C518   1.399       .  A
C513        H523   1.083       .  S
C514        C519   1.487       .  S
C514        C515   1.406       .  A
C515        C516   1.397       .  A
C515        F520   1.357       .  S
C516        C517   1.408       .  A
C516        H521   1.083       .  S
C517        C518   1.406       .  A
C518        F522   1.357       .  S
C519        C524   1.410       .  A
C519        C528   1.403       .  A
C524        C525   1.402       .  A
C524        F529   1.358       .  S
C525        C526   1.406       .  A
C525        H530   1.083       .  S
C526        C527   1.408       .  A
C527        C528   1.396       .  A
C527        F531   1.357       .  S
C528        H532   1.083       .  S
C533        C534   1.408       .  A
C533        C538   1.398       .  A
C533        H543   1.082       .  S
C534        C539   1.499       .  S
C534        C535   1.412       .  A
C535        C536   1.403       .  A
C535        F540   1.357       .  S
C536        C537   1.407       .  A
C536        H541   1.084       .  S
C537        C538   1.405       .  A
C538        F542   1.356       .  S
C539        C544   1.413       .  A
C539        C548   1.409       .  A
C544        C545   1.400       .  A
C544        F549   1.357       .  S
C545        C546   1.401       .  A
C545        H550   1.083       .  S
C546        C547   1.406       .  A
C547        C548   1.401       .  A
C547        F551   1.358       .  S
C548        H552   1.082       .  S
C553        C554   1.401       .  A
C553        C558   1.396       .  A
C553        H563   1.084       .  S
C554        C559   1.464       .  S
C554        C555   1.404       .  A
C555        C556   1.390       .  A
C555        F560   1.358       .  S
C556        C557   1.399       .  A
C556        H561   1.085       .  S
C557        C558   1.403       .  A
C558        F562   1.358       .  S
C559        C564   1.404       .  A
C559        C568   1.394       .  A
C564        C565   1.401       .  A
C564        F569   1.357       .  S
C565        C566   1.406       .  A
C565        H570   1.082       .  S
C566        C567   1.414       .  A
C567        C568   1.385       .  A
C567        F571   1.357       .  S
C568        H572   1.084       .  S
C573        C574   1.403       .  A
C573        C578   1.398       .  A
C573        H583   1.083       .  S
C574        C579   1.497       .  S
C574        C575   1.412       .  A
C575        C576   1.407       .  A
C575        F580   1.357       .  S
C576        C577   1.407       .  A
C576        H581   1.083       .  S
C577        C578   1.413       .  A
C578        F582   1.357       .  S
C579        C584   1.409       .  A
C579        C588   1.408       .  A
C584        C585   1.403       .  A
C584        F589   1.357       .  S
C585        C586   1.409       .  A
C585        H590   1.083       .  S
C586        C587   1.409       .  A
C587        C588   1.400       .  A
C587        F591   1.357       .  S
C588        H592   1.082       .  S
C593        C594   1.402       .  A
C593        C598   1.400       .  A
C593        H603   1.083       .  S
C594        C599   1.497       .  S
C594        C595   1.411       .  A
C595        C596   1.410       .  A
C595        F600   1.357       .  S
C596        C597   1.409       .  A
C596        H601   1.083       .  S
C597        C598   1.415       .  A
C598        F602   1.357       .  S
C599        C604   1.409       .  A
C599        C608   1.405       .  A
C604        C605   1.404       .  A
C604        F609   1.357       .  S
C605        C606   1.407       .  A
C605        H610   1.083       .  S
C606        C607   1.414       .  A
C607        C608   1.406       .  A
C607        F611   1.358       .  S
C608        H612   1.083       .  S
C613        C614   1.398       .  A
C613        C618   1.386       .  A
C613        H623   1.084   1_554  S
C614        C619   1.472   1_554  S
C614        C615   1.408       .  A
C615        C616   1.400       .  A
C615        F620   1.357       .  S
C616        C617   1.404       .  A
C616        H621   1.084       .  S
C617        C618   1.409       .  A
C618        F622   1.358       .  S
C619        C624   1.406   1_556  A
C619        C628   1.401       .  A
C624        C625   1.392   1_554  A
C624        F629   1.358       .  S
C625        C626   1.402       .  A
C625        H630   1.083       .  S
C626        C627   1.409       .  A
C627        C628   1.394       .  A
C627        F631   1.358       .  S
C628        H632   1.083       .  S
C633        C634   1.405       .  A
C633        C638   1.402       .  A
C633        H643   1.082       .  S
C634        C639   1.502       .  S
C634        C635   1.412       .  A
C635        C636   1.409       .  A
C635        F640   1.357       .  S
C636        C637   1.409       .  A
C636        H641   1.082       .  S
C637        C638   1.413       .  A
C638        F642   1.357       .  S
C639        C644   1.411       .  A
C639        C648   1.407       .  A
C644        C645   1.406       .  A
C644        F649   1.357       .  S
C645        C646   1.409       .  A
C645        H650   1.083       .  S
C646        C647   1.413       .  A
C647        C648   1.405       .  A
C647        F651   1.357       .  S
C648        H652   1.083       .  S
C653        C654   1.407       .  A
C653        C658   1.399       .  A
C653        H663   1.082   1_556  S
C654        C659   1.477   1_556  S
C654        C655   1.404       .  A
C655        C656   1.386       .  A
C655        F660   1.358       .  S
C656        C657   1.407       .  A
C656        H661   1.083       .  S
C657        C658   1.406       .  A
C658        F662   1.357       .  S
C659        C664   1.408       .  A
C659        C668   1.405   1_554  A
C664        C665   1.396       .  A
C664        F669   1.357       .  S
C665        C666   1.401       .  A
C665        H670   1.083       .  S
C666        C667   1.402       .  A
C667        C668   1.388   1_554  A
C667        F671   1.358   1_554  S
C668        H672   1.082       .  S
C673        C674   1.408       .  A
C673        C678   1.402       .  A
C673        H683   1.083       .  S
C674        C679   1.494       .  S
C674        C675   1.410       .  A
C675        C676   1.401       .  A
C675        F680   1.357       .  S
C676        C677   1.404       .  A
C676        H681   1.083       .  S
C677        C678   1.406       .  A
C678        F682   1.357       .  S
C679        C684   1.409       .  A
C679        C688   1.409       .  A
C684        C685   1.399       .  A
C684        F689   1.357       .  S
C685        C686   1.404       .  A
C685        H690   1.083       .  S
C686        C687   1.407       .  A
C687        C688   1.404       .  A
C687        F691   1.357       .  S
C688        H692   1.083       .  S
C693        C694   1.404       .  A
C693        C698   1.402       .  A
C693        H703   1.083       .  S
C694        C699   1.488       .  S
C694        C695   1.405       .  A
C695        C696   1.402       .  A
C695        F700   1.357       .  S
C696        C697   1.409       .  A
C696        H701   1.083       .  S
C697        C698   1.412       .  A
C698        F702   1.357       .  S
C699        C704   1.404       .  A
C699        C708   1.407       .  A
C704        C705   1.399       .  A
C704        F709   1.358       .  S
C705        C706   1.410       .  A
C705        H710   1.083       .  S
C706        C707   1.408       .  A
C707        C708   1.405       .  A
C707        F711   1.357       .  S
C708        H712   1.083       .  S
C713        C714   1.405       .  A
C713        C718   1.400       .  A
C713        H723   1.083       .  S
C714        C719   1.496       .  S
C714        C715   1.411       .  A
C715        C716   1.404       .  A
C715        F720   1.357       .  S
C716        C717   1.407       .  A
C716        H721   1.083       .  S
C717        C718   1.412       .  A
C718        F722   1.357       .  S
C719        C724   1.409       .  A
C719        C728   1.407       .  A
C724        C725   1.403       .  A
C724        F729   1.357       .  S
C725        C726   1.408       .  A
C725        H730   1.083       .  S
C726        C727   1.410       .  A
C727        C728   1.401       .  A
C727        F731   1.357       .  S
C728        H732   1.083       .  S
C733        C734   1.404       .  A
C733        C738   1.397       .  A
C733        H743   1.083       .  S
C734        C739   1.485       .  S
C734        C735   1.408       .  A
C735        C736   1.399       .  A
C735        F740   1.357       .  S
C736        C737   1.404       .  A
C736        H741   1.083       .  S
C737        C738   1.409       .  A
C738        F742   1.358       .  S
C739        C744   1.407       .  A
C739        C748   1.405       .  A
C744        C745   1.398       .  A
C744        F749   1.358       .  S
C745        C746   1.406       .  A
C745        H750   1.083       .  S
C746        C747   1.409       .  A
C747        C748   1.399       .  A
C747        F751   1.357       .  S
C748        H752   1.083       .  S
C753        C754   1.408       .  A
C753        C758   1.403       .  A
C753        H763   1.084       .  S
C754        C759   1.488       .  S
C754        C755   1.405       .  A
C755        C756   1.396       .  A
C755        F760   1.357       .  S
C756        C757   1.407       .  A
C756        H761   1.084       .  S
C757        C758   1.409       .  A
C758        F762   1.357       .  S
C759        C764   1.410       .  A
C759        C768   1.401       .  A
C764        C765   1.404       .  A
C764        F769   1.357       .  S
C765        C766   1.406       .  A
C765        H770   1.082       .  S
C766        C767   1.415       .  A
C767        C768   1.396       .  A
C767        F771   1.358       .  S
C768        H772   1.083       .  S
C773        C774   1.407       .  A
C773        C778   1.402       .  A
C773        H783   1.083       .  S
C774        C779   1.489       .  S
C774        C775   1.405       .  A
C775        C776   1.399       .  A
C775        F780   1.358       .  S
C776        C777   1.409       .  A
C776        H781   1.083       .  S
C777        C778   1.410       .  A
C778        F782   1.357       .  S
C779        C784   1.404       .  A
C779        C788   1.409       .  A
C784        C785   1.395       .  A
C784        F789   1.358       .  S
C785        C786   1.409       .  A
C785        H790   1.084       .  S
C786        C787   1.407       .  A
C787        C788   1.405       .  A
C787        F791   1.357       .  S
C788        H792   1.083       .  S
C793        C794   1.406       .  A
C793        C798   1.397       .  A
C793        H803   1.083       .  S
C794        C799   1.484   1_455  S
C794        C795   1.408       .  A
C795        C796   1.396       .  A
C795        F800   1.357       .  S
C796        C797   1.402       .  A
C796        H801   1.083       .  S
C797        C798   1.406       .  A
C798        F802   1.358       .  S
C799        C804   1.407       .  A
C799        C808   1.405       .  A
C804        C805   1.397       .  A
C804        F809   1.358       .  S
C805        C806   1.407       .  A
C805        H810   1.083       .  S
C806        C807   1.407       .  A
C807        C808   1.396       .  A
C807        F811   1.357       .  S
C808        H812   1.082       .  S
C813        C814   1.409       .  A
C813        C818   1.402       .  A
C813        H823   1.083       .  S
C814        C819   1.493   1_566  S
C814        C815   1.407   1_556  A
C815        C816   1.398       .  A
C815        F820   1.357       .  S
C816        C817   1.408   1_554  A
C816        H821   1.083       .  S
C817        C818   1.408       .  A
C818        F822   1.357       .  S
C819        C824   1.411       .  A
C819        C828   1.402   1_554  A
C824        C825   1.407       .  A
C824        F829   1.357       .  S
C825        C826   1.408       .  A
C825        H830   1.083       .  S
C826        C827   1.413       .  A
C827        C828   1.395   1_554  A
C827        F831   1.357   1_554  S
C828        H832   1.083       .  S
C833        C834   1.400       .  A
C833        C838   1.393       .  A
C833        H843   1.083       .  S
C834        C839   1.482       .  S
C834        C835   1.408       .  A
C835        C836   1.401       .  A
C835        F840   1.358       .  S
C836        C837   1.406       .  A
C836        H841   1.082       .  S
C837        C838   1.413       .  A
C838        F842   1.358       .  S
C839        C844   1.405       .  A
C839        C848   1.404       .  A
C844        C845   1.397       .  A
C844        F849   1.357       .  S
C845        C846   1.406       .  A
C845        H850   1.083       .  S
C846        C847   1.411       .  A
C847        C848   1.397       .  A
C847        F851   1.358       .  S
C848        H852   1.083       .  S
C853        C854   1.406       .  A
C853        C858   1.400       .  A
C853        H863   1.083       .  S
C854        C859   1.488       .  S
C854        C855   1.406       .  A
C855        C856   1.399       .  A
C855        F860   1.357       .  S
C856        C857   1.408       .  A
C856        H861   1.083       .  S
C857        C858   1.410       .  A
C858        F862   1.357       .  S
C859        C864   1.404       .  A
C859        C868   1.408       .  A
C864        C865   1.397       .  A
C864        F869   1.358       .  S
C865        C866   1.410       .  A
C865        H870   1.083       .  S
C866        C867   1.409       .  A
C867        C868   1.403       .  A
C867        F871   1.357       .  S
C868        H872   1.083       .  S
C873        C874   1.403   1_554  A
C873        C878   1.398       .  A
C873        H883   1.083       .  S
C874        C879   1.495   1_566  S
C874        C875   1.412       .  A
C875        C876   1.403       .  A
C875        F880   1.357       .  S
C876        C877   1.405       .  A
C876        H881   1.083       .  S
C877        C878   1.414   1_556  A
C878        F882   1.358       .  S
C879        C884   1.412       .  A
C879        C888   1.403   1_554  A
C884        C885   1.406       .  A
C884        F889   1.358       .  S
C885        C886   1.408       .  A
C885        H890   1.083       .  S
C886        C887   1.411   1_554  A
C887        C888   1.394       .  A
C887        F891   1.357       .  S
C888        H892   1.082       .  S
C893        C894   1.404       .  A
C893        C898   1.400       .  A
C893        H903   1.083       .  S
C894        C899   1.488       .  S
C894        C895   1.406       .  A
C895        C896   1.402       .  A
C895        F900   1.357       .  S
C896        C897   1.406       .  A
C896        H901   1.082       .  S
C897        C898   1.411       .  A
C898        F902   1.358       .  S
C899        C904   1.403       .  A
C899        C908   1.408       .  A
C904        C905   1.397       .  A
C904        F909   1.358       .  S
C905        C906   1.411       .  A
C905        H910   1.083       .  S
C906        C907   1.408       .  A
C907        C908   1.405       .  A
C907        F911   1.357       .  S
C908        H912   1.083       .  S
C913        C914   1.406       .  A
C913        C918   1.400       .  A
C913        H923   1.083       .  S
C914        C919   1.478       .  S
C914        C915   1.403       .  A
C915        C916   1.394       .  A
C915        F920   1.357       .  S
C916        C917   1.404       .  A
C916        H921   1.083       .  S
C917        C918   1.407       .  A
C918        F922   1.358       .  S
C919        C924   1.407       .  A
C919        C928   1.399       .  A
C924        C925   1.399       .  A
C924        F929   1.357       .  S
C925        C926   1.405       .  A
C925        H930   1.083       .  S
C926        C927   1.413       .  A
C927        C928   1.394       .  A
C927        F931   1.358       .  S
C928        H932   1.084       .  S
C933        C934   1.405       .  A
C933        C938   1.397       .  A
C933        H943   1.083       .  S
C934        C939   1.484   1_455  S
C934        C935   1.407       .  A
C935        C936   1.399       .  A
C935        F940   1.358       .  S
C936        C937   1.406       .  A
C936        H941   1.083       .  S
C937        C938   1.407       .  A
C938        F942   1.357       .  S
C939        C944   1.407       .  A
C939        C948   1.405       .  A
C944        C945   1.397       .  A
C944        F949   1.358       .  S
C945        C946   1.405       .  A
C945        H950   1.083       .  S
C946        C947   1.407       .  A
C947        C948   1.397       .  A
C947        F951   1.357       .  S
C948        H952   1.083       .  S
C953        C954   1.410       .  A
C953        C958   1.404       .  A
C953        H963   1.082       .  S
C954        C959   1.499   1_554  S
C954        C955   1.410   1_554  A
C955        C956   1.402   1_556  A
C955        F960   1.357       .  S
C956        C957   1.405       .  A
C956        H961   1.083   1_554  S
C957        C958   1.405       .  A
C958        F962   1.357       .  S
C959        C964   1.410   1_556  A
C959        C968   1.410       .  A
C964        C965   1.403   1_554  A
C964        F969   1.357       .  S
C965        C966   1.407       .  A
C965        H970   1.083   1_556  S
C966        C967   1.406       .  A
C967        C968   1.404       .  A
C967        F971   1.357       .  S
C968        H972   1.082       .  S
C973        C974   1.404       .  A
C973        C978   1.398       .  A
C973        H983   1.088   1_556  S
C974        C979   1.480       .  S
C974        C975   1.406       .  A
C975        C976   1.391       .  A
C975        F980   1.358       .  S
C976        C977   1.404       .  A
C976        H981   1.087       .  S
C977        C978   1.409       .  A
C978        F982   1.358       .  S
C979        C984   1.410   1_556  A
C979        C988   1.403       .  A
C984        C985   1.400       .  A
C984        F989   1.358       .  S
C985        C986   1.401       .  A
C985        H990   1.091       .  S
C986        C987   1.401   1_554  A
C987        C988   1.391       .  A
C987        F991   1.357       .  S
C988        H992   1.089       .  S
C993        C994   1.404       .  A
C993        C998   1.401       .  A
C993       H1003   1.083       .  S
C994        C999   1.485       .  S
C994        C995   1.406       .  A
C995        C996   1.398       .  A
C995       F1000   1.358       .  S
C996        C997   1.407       .  A
C996       H1001   1.084       .  S
C997        C998   1.411       .  A
C998       F1002   1.357       .  S
C999       C1004   1.407       .  A
C999       C1008   1.403       .  A
C1004      C1005   1.401       .  A
C1004      F1009   1.358       .  S
C1005      C1006   1.408       .  A
C1005      H1010   1.083       .  S
C1006      C1007   1.409       .  A
C1007      C1008   1.398       .  A
C1007      F1011   1.357       .  S
C1008      H1012   1.083       .  S
C1013      C1014   1.402   1_556  A
C1013      C1018   1.398   1_556  A
C1013      H1023   1.082       .  S
C1014      C1019   1.490   1_554  S
C1014      C1015   1.410       .  A
C1015      C1016   1.404       .  A
C1015      F1020   1.357       .  S
C1016      C1017   1.407       .  A
C1016      H1021   1.082       .  S
C1017      C1018   1.414       .  A
C1018      F1022   1.358   1_554  S
C1019      C1024   1.411       .  A
C1019      C1028   1.401   1_556  A
C1024      C1025   1.406       .  A
C1024      F1029   1.357       .  S
C1025      C1026   1.406       .  A
C1025      H1030   1.083       .  S
C1026      C1027   1.413   1_556  A
C1027      C1028   1.395       .  A
C1027      F1031   1.358       .  S
C1028      H1032   1.083       .  S
C1033      C1034   1.403   1_554  A
C1033      C1038   1.390   1_554  A
C1033      H1043   1.083       .  S
C1034      C1039   1.475   1_556  S
C1034      C1035   1.407       .  A
C1035      C1036   1.397       .  A
C1035      F1040   1.358       .  S
C1036      C1037   1.404       .  A
C1036      H1041   1.083       .  S
C1037      C1038   1.404       .  A
C1038      F1042   1.358   1_556  S
C1039      C1044   1.403       .  A
C1039      C1048   1.406       .  A
C1044      C1045   1.388       .  A
C1044      F1049   1.358       .  S
C1045      C1046   1.406       .  A
C1045      H1050   1.083       .  S
C1046      C1047   1.407       .  A
C1047      C1048   1.399       .  A
C1047      F1051   1.357       .  S
C1048      H1052   1.083       .  S
C1053      C1054   1.408       .  A
C1053      C1058   1.400       .  A
C1053      H1063   1.082       .  S
C1054      C1059   1.491       .  S
C1054      C1055   1.409       .  A
C1055      C1056   1.398       .  A
C1055      F1060   1.358       .  S
C1056      C1057   1.406       .  A
C1056      H1061   1.083       .  S
C1057      C1058   1.405       .  A
C1058      F1062   1.357       .  S
C1059      C1064   1.409       .  A
C1059      C1068   1.409       .  A
C1064      C1065   1.397       .  A
C1064      F1069   1.357       .  S
C1065      C1066   1.402       .  A
C1065      H1070   1.084       .  S
C1066      C1067   1.405       .  A
C1067      C1068   1.403       .  A
C1067      F1071   1.357       .  S
C1068      H1072   1.083       .  S
C1073      C1074   1.405       .  A
C1073      C1078   1.395       .  A
C1073      H1083   1.083       .  S
C1074      C1079   1.488       .  S
C1074      C1075   1.409       .  A
C1075      C1076   1.402       .  A
C1075      F1080   1.358       .  S
C1076      C1077   1.406       .  A
C1076      H1081   1.084       .  S
C1077      C1078   1.406       .  A
C1078      F1082   1.357       .  S
C1079      C1084   1.409       .  A
C1079      C1088   1.406       .  A
C1084      C1085   1.396       .  A
C1084      F1089   1.357       .  S
C1085      C1086   1.403       .  A
C1085      H1090   1.083       .  S
C1086      C1087   1.409       .  A
C1087      C1088   1.400       .  A
C1087      F1091   1.358       .  S
C1088      H1092   1.082       .  S
C1093      C1094   1.410       .  A
C1093      C1098   1.403       .  A
C1093      H1103   1.082       .  S
C1094      C1099   1.496   1_565  S
C1094      C1095   1.408       .  A
C1095      C1096   1.397       .  A
C1095      F1100   1.357       .  S
C1096      C1097   1.407       .  A
C1096      H1101   1.083       .  S
C1097      C1098   1.406       .  A
C1098      F1102   1.357       .  S
C1099      C1104   1.410       .  A
C1099      C1108   1.409       .  A
C1104      C1105   1.402       .  A
C1104      F1109   1.357       .  S
C1105      C1106   1.403       .  A
C1105      H1110   1.083       .  S
C1106      C1107   1.403       .  A
C1107      C1108   1.400       .  A
C1107      F1111   1.358       .  S
C1108      H1112   1.083       .  S
C1113      C1114   1.408       .  A
C1113      C1118   1.395       .  A
C1113      H1123   1.082       .  S
C1114      C1119   1.480       .  S
C1114      C1115   1.406       .  A
C1115      C1116   1.389       .  A
C1115      F1120   1.358       .  S
C1116      C1117   1.406       .  A
C1116      H1121   1.084       .  S
C1117      C1118   1.404       .  A
C1118      F1122   1.357       .  S
C1119      C1124   1.409       .  A
C1119      C1128   1.409       .  A
C1124      C1125   1.389       .  A
C1124      F1129   1.357       .  S
C1125      C1126   1.399       .  A
C1125      H1130   1.083       .  S
C1126      C1127   1.399       .  A
C1127      C1128   1.395       .  A
C1127      F1131   1.358       .  S
C1128      H1132   1.082       .  S
C1133      C1134   1.406       .  A
C1133      C1138   1.400       .  A
C1133      H1143   1.082       .  S
C1134      C1139   1.491       .  S
C1134      C1135   1.408       .  A
C1135      C1136   1.401       .  A
C1135      F1140   1.357       .  S
C1136      C1137   1.408       .  A
C1136      H1141   1.082       .  S
C1137      C1138   1.410       .  A
C1138      F1142   1.357       .  S
C1139      C1144   1.408       .  A
C1139      C1148   1.405       .  A
C1144      C1145   1.401       .  A
C1144      F1149   1.357       .  S
C1145      C1146   1.406       .  A
C1145      H1150   1.082       .  S
C1146      C1147   1.412       .  A
C1147      C1148   1.400       .  A
C1147      F1151   1.358       .  S
C1148      H1152   1.083       .  S
C1153      C1154   1.407       .  A
C1153      C1158   1.404       .  A
C1153      H1163   1.083       .  S
C1154      C1159   1.489       .  S
C1154      C1155   1.404       .  A
C1155      C1156   1.397       .  A
C1155      F1160   1.358       .  S
C1156      C1157   1.409       .  A
C1156      H1161   1.083       .  S
C1157      C1158   1.409       .  A
C1158      F1162   1.357       .  S
C1159      C1164   1.408       .  A
C1159      C1168   1.405       .  A
C1164      C1165   1.398       .  A
C1164      F1169   1.357       .  S
C1165      C1166   1.405       .  A
C1165      H1170   1.084       .  S
C1166      C1167   1.410       .  A
C1167      C1168   1.401       .  A
C1167      F1171   1.358       .  S
C1168      H1172   1.083       .  S
C1173      C1174   1.406       .  A
C1173      C1178   1.401       .  A
C1173      H1183   1.082       .  S
C1174      C1179   1.493       .  S
C1174      C1175   1.409       .  A
C1175      C1176   1.399       .  A
C1175      F1180   1.357       .  S
C1176      C1177   1.406       .  A
C1176      H1181   1.083       .  S
C1177      C1178   1.409       .  A
C1178      F1182   1.358       .  S
C1179      C1184   1.411       .  A
C1179      C1188   1.403       .  A
C1184      C1185   1.403       .  A
C1184      F1189   1.357       .  S
C1185      C1186   1.406       .  A
C1185      H1190   1.083       .  S
C1186      C1187   1.413       .  A
C1187      C1188   1.397       .  A
C1187      F1191   1.358       .  S
C1188      H1192   1.083       .  S
C1193      C1194   1.411       .  A
C1193      C1198   1.408       .  A
C1193      H1203   1.083   1_565  S
C1194      C1199   1.496   1_565  S
C1194      C1195   1.405       .  A
C1195      C1196   1.396       .  A
C1195      F1200   1.357       .  S
C1196      C1197   1.409       .  A
C1196      H1201   1.083       .  S
C1197      C1198   1.410       .  A
C1198      F1202   1.357       .  S
C1199      C1204   1.406       .  A
C1199      C1208   1.411       .  A
C1204      C1205   1.399       .  A
C1204      F1209   1.358       .  S
C1205      C1206   1.410       .  A
C1205      H1210   1.083       .  S
C1206      C1207   1.407       .  A
C1207      C1208   1.406       .  A
C1207      F1211   1.357       .  S
C1208      H1212   1.082       .  S
C1213      C1214   1.401       .  A
C1213      C1218   1.401       .  A
C1213      H1223   1.083       .  S
C1214      C1219   1.486       .  S
C1214      C1215   1.408       .  A
C1215      C1216   1.402       .  A
C1215      F1220   1.357       .  S
C1216      C1217   1.404       .  A
C1216      H1221   1.082       .  S
C1217      C1218   1.415       .  A
C1218      F1222   1.358       .  S
C1219      C1224   1.406       .  A
C1219      C1228   1.402       .  A
C1224      C1225   1.404       .  A
C1224      F1229   1.358       .  S
C1225      C1226   1.410       .  A
C1225      H1230   1.083       .  S
C1226      C1227   1.410       .  A
C1227      C1228   1.398       .  A
C1227      F1231   1.357       .  S
C1228      H1232   1.082       .  S
C1233      C1234   1.406       .  A
C1233      C1238   1.403       .  A
C1233      H1243   1.083       .  S
C1234      C1239   1.491       .  S
C1234      C1235   1.406       .  A
C1235      C1236   1.399       .  A
C1235      F1240   1.358       .  S
C1236      C1237   1.409       .  A
C1236      H1241   1.083       .  S
C1237      C1238   1.409       .  A
C1238      F1242   1.357       .  S
C1239      C1244   1.410       .  A
C1239      C1248   1.404       .  A
C1244      C1245   1.402       .  A
C1244      F1249   1.358       .  S
C1245      C1246   1.406       .  A
C1245      H1250   1.083       .  S
C1246      C1247   1.411       .  A
C1247      C1248   1.401       .  A
C1247      F1251   1.357       .  S
C1248      H1252   1.083       .  S
C1253      C1254   1.402       .  A
C1253      C1258   1.396       .  A
C1253      H1263   1.083       .  S
C1254      C1259   1.475       .  S
C1254      C1255   1.405       .  A
C1255      C1256   1.396       .  A
C1255      F1260   1.357       .  S
C1256      C1257   1.404       .  A
C1256      H1261   1.083       .  S
C1257      C1258   1.409       .  A
C1258      F1262   1.358       .  S
C1259      C1264   1.405       .  A
C1259      C1268   1.403       .  A
C1264      C1265   1.396       .  A
C1264      F1269   1.358       .  S
C1265      C1266   1.405       .  A
C1265      H1270   1.083       .  S
C1266      C1267   1.406       .  A
C1267      C1268   1.397       .  A
C1267      F1271   1.357       .  S
C1268      H1272   1.083       .  S
C1273      C1274   1.397       .  A
C1273      C1278   1.385       .  A
C1273      H1283   1.083       .  S
C1274      C1279   1.476       .  S
C1274      C1275   1.409       .  A
C1275      C1276   1.402       .  A
C1275      F1280   1.357       .  S
C1276      C1277   1.405       .  A
C1276      H1281   1.083       .  S
C1277      C1278   1.413       .  A
C1278      F1282   1.358       .  S
C1279      C1284   1.408       .  A
C1279      C1288   1.404       .  A
C1284      C1285   1.392       .  A
C1284      F1289   1.358       .  S
C1285      C1286   1.401       .  A
C1285      H1290   1.084       .  S
C1286      C1287   1.405       .  A
C1287      C1288   1.396       .  A
C1287      F1291   1.358       .  S
C1288      H1292   1.083       .  S
C1293      C1294   1.409       .  A
C1293      C1298   1.403       .  A
C1293      H1303   1.087       .  S
C1294      C1299   1.495       .  S
C1294      C1295   1.410       .  A
C1295      C1296   1.395       .  A
C1295      F1300   1.357       .  S
C1296      C1297   1.401       .  A
C1296      H1301   1.099       .  S
C1297      C1298   1.406       .  A
C1298      F1302   1.357       .  S
C1299      C1304   1.411       .  A
C1299      C1308   1.407       .  A
C1304      C1305   1.400       .  A
C1304      F1309   1.357       .  S
C1305      C1306   1.404       .  A
C1305      H1310   1.088       .  S
C1306      C1307   1.406       .  A
C1307      C1308   1.400       .  A
C1307      F1311   1.357       .  S
C1308      H1312   1.090       .  S
