geometry optimzed in LAMMPS
_audit_creation_date              2020-12-01 
_audit_creation_method            'lammps2cif' 
_symmetry_space_group_name_H-M    'P1' 
_symmetry_Int_Tables_number       1 
_symmetry_cell_setting            triclinic 
loop_ 
_symmetry_equiv_pos_as_xyz 
  x,y,z 
_cell_length_a                    35.83489153 
_cell_length_b                    40.81212813943472 
_cell_length_c                    42.73595299246453 
_cell_angle_alpha                 89.85906889467357 
_cell_angle_beta                  89.43764108481079 
_cell_angle_gamma                 90.21153125203114 
loop_ 
_atom_site_label 
_atom_site_type_symbol 
_atom_site_fract_x 
_atom_site_fract_y 
_atom_site_fract_z 
_atom_site_charge 
O1          O  0.90623345  0.46246467  0.37297044    -0.85600
O2          O  0.85234500  0.46217781  0.32773899    -0.82600
C3          C  0.82219028  0.45518245  0.31423404     0.97900
O4          O  0.79256474  0.44978866  0.33006817    -0.82700
O5          O  0.80236653  0.38926461  0.35675856    -0.85300
C6          C  0.81308295  0.36682990  0.37475120     1.02400
O7          O  0.83351978  0.37402538  0.39785208    -0.78100
O8          O  0.89851399  0.40964530  0.37925988    -0.78300
C9          C  0.91910425  0.43368274  0.37168754     1.02300
O10         O  0.85643531  0.49696232  0.41387702    -0.85600
O11         O  0.80617594  0.50357317  0.36479768    -0.82700
C12         C  0.77455548  0.50024461  0.37782203     0.97900
O13         O  0.76584987  0.47339437  0.39042270    -0.82700
O14         O  0.77263797  0.41151621  0.41547911    -0.85300
C15         C  0.78793237  0.41357484  0.44205317     1.02400
O16         O  0.82132347  0.42255591  0.44449153    -0.78100
O17         O  0.88611534  0.45368122  0.43118234    -0.78300
C18         C  0.87476081  0.48280181  0.43510538     1.02300
Cr19       Cr  0.85376515  0.47869505  0.37094905     1.93700
Cr20       Cr  0.78685579  0.43190757  0.37404456     1.93200
Cr21       Cr  0.85819301  0.41669851  0.41082691     1.39100
O22         O  0.83282531  0.44225696  0.38520660    -1.23300
O23         O  0.90811945  0.06996041  0.61612694    -0.85600
O24         O  0.85522538  0.06877189  0.66286200    -0.82600
C25         C  0.82514506  0.07510873  0.67719337     0.97900
O26         O  0.79532806  0.07972292  0.66199881    -0.82700
O27         O  0.80480902  0.13963412  0.63473584    -0.85300
C28         C  0.81354331  0.16224547  0.61603002     1.02400
O29         O  0.83294650  0.15568070  0.59192127    -0.78100
O30         O  0.89863535  0.12242225  0.60876924    -0.78300
C31         C  0.91972634  0.09930249  0.61689732     1.02300
O32         O  0.85808685  0.03359356  0.57682130    -0.85600
O33         O  0.80908890  0.02593572  0.62737188    -0.82700
C34         C  0.77701706  0.02872953  0.61554582     0.97900
O35         O  0.76769274  0.05527544  0.60288427    -0.82700
O36         O  0.77293809  0.11718802  0.57716933    -0.85300
C37         C  0.78748566  0.11562748  0.55002493     1.02400
O38         O  0.82066006  0.10638856  0.54644785    -0.78100
O39         O  0.88670093  0.07693174  0.55782589    -0.78300
C40         C  0.87558325  0.04757194  0.55465669     1.02300
Cr41       Cr  0.85613907  0.05203080  0.61964346     1.93700
Cr42       Cr  0.78853652  0.09716382  0.61819687     1.93200
Cr43       Cr  0.85823883  0.11353701  0.57863515     1.39100
O44         O  0.83418391  0.08766738  0.60551090    -1.23300
O45         O  0.16348038  0.47443495  0.33261128    -0.85600
O46         O  0.09851423  0.45274636  0.36017297    -0.82600
C47         C  0.07878478  0.43172093  0.37440256     0.97900
O48         O  0.09216546  0.41523824  0.39654511    -0.82700
O49         O  0.14988219  0.37192552  0.37972291    -0.85300
C50         C  0.18273748  0.36260361  0.37328568     1.02400
O51         O  0.20969524  0.38230994  0.37534230    -0.78100
O52         O  0.19617229  0.42873959  0.33035541    -0.78300
C53         C  0.17919501  0.45182608  0.31682009     1.02300
O54         O  0.18496643  0.50321104  0.39275579    -0.85600
O55         O  0.11937074  0.48218696  0.41909154    -0.82700
C56         C  0.12477547  0.46813338  0.44513032     0.97900
O57         O  0.13733296  0.43929425  0.44607065    -0.82700
O58         O  0.19009410  0.39423241  0.43204363    -0.85300
C59         C  0.21837704  0.41133678  0.43812981     1.02400
O60         O  0.23067808  0.43209123  0.41836930    -0.78100
O61         O  0.22865539  0.47683836  0.36793033    -0.78300
C62         C  0.21731446  0.50233832  0.38112982     1.02300
Cr63       Cr  0.14346520  0.47501747  0.37695558     1.93700
Cr64       Cr  0.14378957  0.40777183  0.41130115     1.93200
Cr65       Cr  0.21250421  0.43066534  0.37421553     1.39100
O66         O  0.16600034  0.43778583  0.38714876    -1.23300
O67         O  0.14327303  0.07112441  0.66692471    -0.85600
O68         O  0.08982304  0.06824306  0.62174115    -0.82600
C69         C  0.07783443  0.09741536  0.62054474     0.97900
O70         O  0.09886056  0.12015073  0.61084929    -0.82700
O71         O  0.16395966  0.15355839  0.59140855    -0.85300
C72         C  0.18293669  0.16198407  0.61507441     1.02400
O73         O  0.19195009  0.14053494  0.63471833    -0.78100
O74         O  0.20319015  0.08207881  0.66440997    -0.78300
C75         C  0.17337880  0.07819659  0.68032112     1.02300
O76         O  0.19006511  0.02680779  0.63276917    -0.85600
O77         O  0.14047367  0.02993266  0.58397066    -0.82700
C78         C  0.12282071  0.04169305  0.56119409     0.97900
O79         O  0.11141685  0.07116041  0.56237649    -0.82700
O80         O  0.17677695  0.10111709  0.54858938    -0.85300
C81         C  0.20911776  0.11250810  0.55107241     1.02400
O82         O  0.22362643  0.11610819  0.57778741    -0.78100
O83         O  0.23045021  0.05553954  0.60553620    -0.78300
C84         C  0.22148901  0.02922886  0.61907620     1.02300
Cr85       Cr  0.14230034  0.05143409  0.62516440     1.93700
Cr86       Cr  0.13919814  0.10992251  0.58067980     1.93200
Cr87       Cr  0.20906783  0.09761186  0.61978291     1.39100
O88         O  0.16358446  0.08641921  0.60856372    -1.23300
O89         O  0.40375974  0.21331247  0.37649862    -0.85600
O90         O  0.35289613  0.21077956  0.32931084    -0.82600
C91         C  0.32404957  0.20202601  0.31487511     0.97900
O92         O  0.29408449  0.19524677  0.32968342    -0.82700
O93         O  0.30535385  0.13709416  0.35998547    -0.85300
C94         C  0.31303355  0.11648279  0.38079290     1.02400
O95         O  0.33181124  0.12551001  0.40420888    -0.78100
O96         O  0.39697138  0.16065391  0.38514193    -0.78300
C97         C  0.41721690  0.18454036  0.37657971     1.02300
O98         O  0.34896140  0.24833773  0.41401761    -0.85600
O99         O  0.30237602  0.25188038  0.36253324    -0.82700
C100        C  0.26973066  0.24760403  0.37345969     0.97900
O101        O  0.26139439  0.22099627  0.38665173    -0.82700
O102        O  0.26998850  0.16171256  0.41571891    -0.85300
C103        C  0.28349202  0.16601124  0.44273622     1.02400
O104        O  0.31604229  0.17698306  0.44595629    -0.78100
O105        O  0.38167679  0.20810525  0.43350236    -0.78300
C106        C  0.36754600  0.23635756  0.43616724     1.02300
Cr107      Cr  0.35069084  0.22867341  0.37179638     1.93700
Cr108      Cr  0.28599350  0.17974284  0.37389009     1.93200
Cr109      Cr  0.35515773  0.16929403  0.41473576     1.39100
O110        O  0.33049172  0.19238128  0.38659267    -1.23300
O111        O  0.40539860  0.31697678  0.61815708    -0.85600
O112        O  0.35162652  0.31832007  0.66432575    -0.82600
C113        C  0.32162458  0.32588008  0.67822766     0.97900
O114        O  0.29209454  0.33130589  0.66265980    -0.82700
O115        O  0.30264576  0.39109899  0.63545277    -0.85300
C116        C  0.31400143  0.41351447  0.61748862     1.02400
O117        O  0.33593480  0.40664572  0.59504509    -0.78100
O118        O  0.39887451  0.36994372  0.61374980    -0.78300
C119        C  0.41884643  0.34560522  0.62047160     1.02300
O120        O  0.35266836  0.28421073  0.57833326    -0.85600
O121        O  0.30400432  0.27728537  0.62873336    -0.82700
C122        C  0.27311432  0.28017610  0.61499721     0.97900
O123        O  0.26513619  0.30702071  0.60220884    -0.82700
O124        O  0.27372687  0.36915329  0.57681284    -0.85300
C125        C  0.29073935  0.36949461  0.55057486     1.02400
O126        O  0.32389144  0.36003771  0.54814866    -0.78100
O127        O  0.38606287  0.32591543  0.56127091    -0.78300
C128        C  0.37094904  0.29818861  0.55669936     1.02300
Cr129      Cr  0.35220742  0.30169113  0.62129177     1.93700
Cr130      Cr  0.28665322  0.34871840  0.61841427     1.93200
Cr131      Cr  0.35957787  0.36385440  0.58193827     1.39100
O132        O  0.33258660  0.33840518  0.60725817    -1.23300
O133        O  0.64299744  0.21005451  0.32808256    -0.85600
O134        O  0.59088367  0.21093966  0.37561999    -0.82600
C135        C  0.57745425  0.18214087  0.37536687     0.97900
O136        O  0.59780024  0.15819508  0.38283432    -0.82700
O137        O  0.66299478  0.12289911  0.39928100    -0.85300
C138        C  0.68241840  0.11561829  0.37537976     1.02400
O139        O  0.69133974  0.13775510  0.35625633    -0.78100
O140        O  0.70240117  0.19707321  0.32821268    -0.78300
C141        C  0.67245760  0.20246679  0.31340614     1.02300
O142        O  0.69168832  0.25183116  0.36269579    -0.85600
O143        O  0.64343829  0.24572301  0.41397932    -0.82700
C144        C  0.62582097  0.23222763  0.43635154     0.97900
O145        O  0.61306908  0.20340082  0.43320895    -0.82700
O146        O  0.67786308  0.17189653  0.44414988    -0.85300
C147        C  0.71086387  0.16222775  0.44037111     1.02400
O148        O  0.72501699  0.16005627  0.41313299    -0.78100
O149        O  0.73241855  0.22150022  0.38680240    -0.78300
C150        C  0.72361686  0.24850863  0.37472567     1.02300
Cr151      Cr  0.64366909  0.22710329  0.37118822     1.93700
Cr152      Cr  0.63949385  0.16582736  0.41237426     1.93200
Cr153      Cr  0.70946997  0.17998073  0.37209594     1.39100
O154        O  0.66433406  0.19083046  0.38517798    -1.23300
O155        O  0.64258413  0.31764977  0.66477726    -0.85600
O156        O  0.59111182  0.31757214  0.61755223    -0.82600
C157        C  0.57838311  0.34643195  0.61872989     0.97900
O158        O  0.59917968  0.37031068  0.61125687    -0.82700
O159        O  0.66478926  0.40516494  0.59444116    -0.85300
C160        C  0.68444137  0.41270369  0.61780140     1.02400
O161        O  0.69407222  0.39070895  0.63671505    -0.78100
O162        O  0.70221504  0.33057027  0.66443407    -0.78300
C163        C  0.67204983  0.32462040  0.67933234     1.02300
O164        O  0.69013379  0.27621635  0.62949050    -0.85600
O165        O  0.64326809  0.28278820  0.57858375    -0.82700
C166        C  0.62616847  0.29673075  0.55655135     0.97900
O167        O  0.61412586  0.32566844  0.56005774    -0.82700
O168        O  0.67958766  0.35664680  0.54906378    -0.85300
C169        C  0.71286001  0.36565038  0.55250758     1.02400
O170        O  0.72705713  0.36770145  0.57951556    -0.78100
O171        O  0.73255195  0.30587946  0.60588949    -0.78300
C172        C  0.72248876  0.27899433  0.61784459     1.02300
Cr173      Cr  0.64333047  0.30118556  0.62150665     1.93700
Cr174      Cr  0.64095453  0.36271593  0.58115880     1.93200
Cr175      Cr  0.71049750  0.34780952  0.62064629     1.39100
O176        O  0.66509494  0.33743758  0.60787609    -1.23300
O177        O  0.85025563  0.46100137  0.16448873    -0.85600
O178        O  0.90376559  0.46068119  0.11790192    -0.82600
C179        C  0.91639952  0.43171514  0.11865974     0.97900
O180        O  0.89559346  0.40797261  0.11119642    -0.82700
O181        O  0.83000650  0.37323698  0.09477907    -0.85300
C182        C  0.80983362  0.36597577  0.11832704     1.02400
O183        O  0.79979018  0.38823849  0.13686931    -0.78100
O184        O  0.79038941  0.44881796  0.16368681    -0.78300
C185        C  0.82008970  0.45456690  0.17877376     1.02300
O186        O  0.80374717  0.50258257  0.12840107    -0.85600
O187        O  0.85308411  0.49565998  0.07803510    -0.82700
C188        C  0.87074475  0.48155582  0.05617274     0.97900
O189        O  0.88230922  0.45249937  0.05987111    -0.82700
O190        O  0.81691989  0.42175504  0.04863213    -0.85300
C191        C  0.78358533  0.41264614  0.05196612     1.02400
O192        O  0.76881115  0.41057411  0.07900763    -0.78100
O193        O  0.76295484  0.47239249  0.10405893    -0.78300
C194        C  0.77187869  0.49920429  0.11634216     1.02300
Cr195      Cr  0.85121800  0.47739085  0.12111351     1.93700
Cr196      Cr  0.85457996  0.41561860  0.08104979     1.93200
Cr197      Cr  0.78400532  0.43089290  0.11997153     1.39100
O198        O  0.82986252  0.44109379  0.10752029    -1.23300
O199        O  0.85583707  0.06837121  0.82747785    -0.85600
O200        O  0.90732428  0.06762073  0.87459925    -0.82600
C201        C  0.92008282  0.09650300  0.87303583     0.97900
O202        O  0.89957057  0.12029468  0.88092660    -0.82700
O203        O  0.83368470  0.15458440  0.89906591    -0.85300
C204        C  0.81336666  0.16183846  0.87599326     1.02400
O205        O  0.80471397  0.13988608  0.85678526    -0.78100
O206        O  0.79612044  0.08050649  0.82839989    -0.78300
C207        C  0.82625619  0.07549014  0.81319679     1.02300
O208        O  0.80838506  0.02563646  0.86224692    -0.85600
O209        O  0.85556024  0.03197008  0.91330269    -0.82700
C210        C  0.87301163  0.04562346  0.93534139     0.97900
O211        O  0.88534829  0.07460979  0.93187964    -0.82700
O212        O  0.82016048  0.10521196  0.94410426    -0.85300
C213        C  0.78689191  0.11416122  0.94094539     1.02400
O214        O  0.77234268  0.11590764  0.91403234    -0.78100
O215        O  0.76685045  0.05460420  0.88730696    -0.78300
C216        C  0.77644010  0.02807047  0.87469958     1.02300
Cr217      Cr  0.85527863  0.05094407  0.87053592     1.93700
Cr218      Cr  0.85821773  0.11197655  0.91151509     1.93200
Cr219      Cr  0.78833211  0.09685679  0.87255753     1.39100
O220        O  0.83376903  0.08679443  0.88480932    -1.23300
O221        O  0.08946145  0.46183613  0.12092803    -0.85600
O222        O  0.14259073  0.46243033  0.16747154    -0.82600
C223        C  0.17258507  0.45526825  0.18117832     0.97900
O224        O  0.20205926  0.44888800  0.16556705    -0.82700
O225        O  0.19263464  0.38898708  0.13858097    -0.85300
C226        C  0.18251852  0.36676880  0.12020334     1.02400
O227        O  0.16251101  0.37407111  0.09689557    -0.78100
O228        O  0.09715680  0.40911144  0.11416884    -0.78300
C229        C  0.07643668  0.43290461  0.12159845     1.02300
O230        O  0.14111875  0.49684480  0.08070901    -0.85600
O231        O  0.18981109  0.50347332  0.13104701    -0.82700
C232        C  0.22192204  0.49995530  0.11904373     0.97900
O233        O  0.23050814  0.47335840  0.10611219    -0.82700
O234        O  0.22418554  0.41154833  0.08033873    -0.85300
C235        C  0.20929967  0.41320124  0.05355055     1.02400
O236        O  0.17625803  0.42280884  0.05073895    -0.78100
O237        O  0.11147641  0.45382356  0.06278869    -0.78300
C238        C  0.12379182  0.48272855  0.05886546     1.02300
Cr239      Cr  0.14217409  0.47849891  0.12387074     1.93700
Cr240      Cr  0.20886642  0.43165089  0.12170717     1.93200
Cr241      Cr  0.13846421  0.41671146  0.08361696     1.39100
O242        O  0.16322518  0.44206889  0.10994226    -1.23300
O243        O  0.09148514  0.06780724  0.87556276    -0.85600
O244        O  0.14511702  0.06918722  0.82943417    -0.82600
C245        C  0.17514501  0.07696291  0.81554089     0.97900
O246        O  0.20468338  0.08214690  0.83093782    -0.82700
O247        O  0.19386447  0.14157066  0.85875372    -0.85300
C248        C  0.18315634  0.16332633  0.87755005     1.02400
O249        O  0.16327900  0.15530499  0.90103313    -0.78100
O250        O  0.09925582  0.12044679  0.88250358    -0.78300
C251        C  0.07891480  0.09677003  0.87426675     1.02300
O252        O  0.14244694  0.03245629  0.91507407    -0.85600
O253        O  0.19186116  0.02719976  0.86461673    -0.82700
C254        C  0.22342150  0.03053676  0.87718760     0.97900
O255        O  0.23191007  0.05717956  0.89001813    -0.82700
O256        O  0.22426914  0.11806492  0.91639607    -0.85300
C257        C  0.20923312  0.11530006  0.94325245     1.02400
O258        O  0.17602542  0.10573158  0.94615411    -0.78100
O259        O  0.11155109  0.07450095  0.93345737    -0.78300
C260        C  0.12441337  0.04583196  0.93715790     1.02300
Cr261      Cr  0.14407953  0.05160784  0.87231344     1.93700
Cr262      Cr  0.21030029  0.09881280  0.87492587     1.93200
Cr263      Cr  0.13911287  0.11233117  0.91342373     1.39100
O264        O  0.16464910  0.08775518  0.88678877    -1.23300
O265        O  0.35224324  0.20992626  0.16504259    -0.85600
O266        O  0.40412196  0.21102017  0.11751897    -0.82600
C267        C  0.41642981  0.18192471  0.11776663     0.97900
O268        O  0.39549205  0.15850899  0.11002637    -0.82700
O269        O  0.33074091  0.12433953  0.09408311    -0.85300
C270        C  0.31233091  0.11634266  0.11835666     1.02400
O271        O  0.30207466  0.13815085  0.13730646    -0.78100
O272        O  0.29246319  0.19787315  0.16491204    -0.78300
C273        C  0.32257084  0.20267806  0.17963934     1.02300
O274        O  0.30413696  0.25245950  0.13112790    -0.85600
O275        O  0.35192978  0.24709061  0.07977292    -0.82700
C276        C  0.36886620  0.23355348  0.05722997     0.97900
O277        O  0.38119720  0.20466389  0.06021211    -0.82700
O278        O  0.31579203  0.17403525  0.04960072    -0.85300
C279        C  0.28314956  0.16334108  0.05329852     1.02400
O280        O  0.26898628  0.16084076  0.08050046    -0.78100
O281        O  0.26307076  0.22264843  0.10655901    -0.78300
C282        C  0.27226149  0.24942802  0.11892154     1.02300
Cr283      Cr  0.35167350  0.22766571  0.12229983     1.93700
Cr284      Cr  0.35427649  0.16708024  0.08081677     1.93200
Cr285      Cr  0.28494230  0.18083092  0.12133672     1.39100
O286        O  0.33019713  0.19169007  0.10825983    -1.23300
O287        O  0.35271242  0.31985941  0.82849781    -0.85600
O288        O  0.40442940  0.31927560  0.87565886    -0.82600
C289        C  0.41734611  0.34821390  0.87472843     0.97900
O290        O  0.39678461  0.37194983  0.88253515    -0.82700
O291        O  0.33161730  0.40660914  0.89931344    -0.85300
C292        C  0.31270128  0.41409803  0.87548025     1.02400
O293        O  0.30270385  0.39202542  0.85689754    -0.78100
O294        O  0.29310934  0.33240679  0.82933749    -0.78300
C295        C  0.32316317  0.32698634  0.81417173     1.02300
O296        O  0.30438618  0.27791139  0.86355212    -0.85600
O297        O  0.35163439  0.28414401  0.91455169    -0.82700
C298        C  0.36873582  0.29784240  0.93673279     0.97900
O299        O  0.38150178  0.32663412  0.93325193    -0.82700
O300        O  0.31647096  0.35755795  0.94479230    -0.85300
C301        C  0.28339463  0.36697574  0.94152048     1.02400
O302        O  0.26929575  0.36929160  0.91447252    -0.78100
O303        O  0.26327882  0.30769450  0.88836727    -0.78300
C304        C  0.27232077  0.28102025  0.87576612     1.02300
Cr305      Cr  0.35186990  0.30282898  0.87168747     1.93700
Cr306      Cr  0.35503184  0.36397856  0.91256260     1.93200
Cr307      Cr  0.28544945  0.34947366  0.87323224     1.39100
O308        O  0.33068623  0.33896694  0.88570085    -1.23300
O309        O  0.58757300  0.20813668  0.11645670    -0.85600
O310        O  0.63929862  0.20804298  0.16329301    -0.82600
C311        C  0.66898227  0.20116068  0.17748631     0.97900
O312        O  0.69900924  0.19606025  0.16220824    -0.82700
O313        O  0.69048281  0.13674544  0.13352780    -0.85300
C314        C  0.68105686  0.11489184  0.11444899     1.02400
O315        O  0.66214128  0.12260907  0.09072598    -0.78100
O316        O  0.59635263  0.15570323  0.10856851    -0.78300
C317        C  0.57530280  0.17899696  0.11664154     1.02300
O318        O  0.63857692  0.24492791  0.07773128    -0.85600
O319        O  0.68632350  0.25130574  0.12847957    -0.82700
C320        C  0.71877227  0.24881032  0.11687476     0.97900
O321        O  0.72849850  0.22245469  0.10395200    -0.82700
O322        O  0.72315550  0.16130007  0.07648739    -0.85300
C323        C  0.70896949  0.16365569  0.04947061     1.02400
O324        O  0.67580303  0.17284146  0.04624280    -0.78100
O325        O  0.60965939  0.20202246  0.05881747    -0.78300
C326        C  0.62108336  0.23125296  0.05575714     1.02300
Cr327      Cr  0.63949494  0.22559211  0.12030946     1.93700
Cr328      Cr  0.70689208  0.17999343  0.11806463     1.93200
Cr329      Cr  0.63758797  0.16503930  0.07852174     1.39100
O330        O  0.66146827  0.19006622  0.10571782    -1.23300
O331        O  0.58842435  0.31891012  0.87525365    -0.85600
O332        O  0.64213514  0.31791503  0.82921352    -0.82600
C333        C  0.67257661  0.32381612  0.81520700     0.97900
O334        O  0.70232548  0.32824327  0.83068213    -0.82700
O335        O  0.69527009  0.38852594  0.85809866    -0.85300
C336        C  0.68552166  0.41085613  0.87665922     1.02400
O337        O  0.66456926  0.40398181  0.89982488    -0.78100
O338        O  0.59821864  0.37133890  0.88218399    -0.78300
C339        C  0.57674123  0.34816751  0.87452108     1.02300
O340        O  0.63759951  0.28230691  0.91472593    -0.85600
O341        O  0.68683164  0.27443416  0.86494234    -0.82700
C342        C  0.71840203  0.27647354  0.87777690     0.97900
O343        O  0.72799879  0.30286765  0.89054930    -0.82700
O344        O  0.72404315  0.36478278  0.91610395    -0.85300
C345        C  0.70849042  0.36340985  0.94289403     1.02400
O346        O  0.67494800  0.35480608  0.94573871    -0.78100
O347        O  0.60905702  0.32571283  0.93312993    -0.78300
C348        C  0.62005141  0.29644590  0.93655984     1.02300
Cr349      Cr  0.64027790  0.30090488  0.87214549     1.93700
Cr350      Cr  0.70896131  0.34527157  0.87473090     1.93200
Cr351      Cr  0.63827402  0.36221418  0.91282083     1.39100
O352        O  0.66259432  0.33639328  0.88642416    -1.23300
C353        C  0.61514651  0.24841255  0.02575108    -0.05700
C354        C  0.61346224  0.22985991  0.99812483    -0.33100
C355        C  0.61339981  0.24510902  0.96882281     0.36100
C356        C  0.61399621  0.27954445  0.96676376    -0.06100
C357        C  0.61279176  0.29810195  0.99441526    -0.33000
C358        C  0.61406717  0.28281814  0.02374406     0.36000
H359        H  0.61401034  0.20334319  0.99915032     0.16400
O360        O  0.61405902  0.22607894  0.94240796    -0.60500
H361        H  0.61300596  0.32462894  0.99333597     0.16400
O362        O  0.61429204  0.30171379  0.05023973    -0.60600
H363        H  0.64057753  0.30887521  0.05265064     0.43400
H364        H  0.58772139  0.22480028  0.93556784     0.43300
C365        C  0.45767205  0.35308020  0.86767442    -0.05700
C366        C  0.47723664  0.37962372  0.88068854    -0.33100
C367        C  0.51649426  0.38005424  0.88085775     0.36100
C368        C  0.53667607  0.35372868  0.86770763    -0.06100
C369        C  0.51697892  0.32916742  0.85179576    -0.33000
C370        C  0.47801630  0.32875670  0.85156815     0.36000
H371        H  0.46221540  0.39885057  0.89281187     0.16400
O372        O  0.53459478  0.40508309  0.89584756    -0.60500
H373        H  0.53182822  0.30907287  0.84085214     0.16400
O374        O  0.46015702  0.30325962  0.83707913    -0.60600
H375        H  0.45433311  0.31149051  0.81585090     0.43400
H376        H  0.53543932  0.39835955  0.91814831     0.43300
C377        C  0.45645090  0.17625561  0.12392015    -0.05700
C378        C  0.47521397  0.15019767  0.10918835    -0.33100
C379        C  0.51435466  0.14885654  0.10883776     0.36100
C380        C  0.53514171  0.17384080  0.12341525    -0.06100
C381        C  0.51614970  0.19787304  0.14074465    -0.33000
C382        C  0.47727133  0.19921474  0.14110298     0.36000
H383        H  0.45971676  0.13218448  0.09595292     0.16400
O384        O  0.53178032  0.12505068  0.09152272    -0.60500
H385        H  0.53157058  0.21694711  0.15265689     0.16400
O386        O  0.46004593  0.22433080  0.15679908    -0.60600
H387        H  0.45256011  0.21492199  0.17735070     0.43400
H388        H  0.53505932  0.10641954  0.10616529     0.43300
C389        C  0.37293355  0.25044680  0.02672078    -0.05700
C390        C  0.37229319  0.23164916  0.99921210    -0.33100
C391        C  0.37188916  0.24661852  0.96973562     0.36100
C392        C  0.37283260  0.28102362  0.96725542    -0.06100
C393        C  0.37503435  0.29982198  0.99475373    -0.33000
C394        C  0.37454484  0.28483405  0.02430636     0.36000
H395        H  0.37065078  0.20516272  0.00054238     0.16400
O396        O  0.36979822  0.22734268  0.94356941    -0.60500
H397        H  0.37563699  0.32633869  0.99343585     0.16400
O398        O  0.37602805  0.30397976  0.05061115    -0.60600
H399        H  0.35014254  0.31181377  0.05403706     0.43400
H400        H  0.39607394  0.22297348  0.93745821     0.43300
C401        C  0.25071756  0.00350599  0.87519558    -0.05700
C402        C  0.25023018  0.48309768  0.84892442    -0.33100
C403        C  0.27309358  0.45544794  0.84716318     0.36100
C404        C  0.29691153  0.44756735  0.87223096    -0.06100
C405        C  0.29949424  0.46964106  0.89741182    -0.33000
C406        C  0.27642065  0.99730659  0.89917352     0.36000
H407        H  0.23130233  0.48806496  0.82987553     0.16400
O408        O  0.27101369  0.43580322  0.82120782    -0.60500
H409        H  0.31739458  0.46425872  0.91703104     0.16400
O410        O  0.27748311  0.01681094  0.92523542    -0.60600
H411        H  0.29840332  0.03231478  0.92137108     0.43400
H412        H  0.24769175  0.42289440  0.82394446     0.43300
C413        C  0.19895386  0.19703848  0.87450930    -0.05700
C414        C  0.22158371  0.20469943  0.84837538    -0.33100
C415        C  0.24451095  0.23254361  0.84811187     0.36100
C416        C  0.24524149  0.25354289  0.87423635    -0.06100
C417        C  0.22048888  0.24753391  0.89924877    -0.33000
C418        C  0.19754821  0.21956924  0.89961150     0.36000
H419        H  0.22298342  0.18819666  0.82857963     0.16400
O420        O  0.26683925  0.23851316  0.82244535    -0.60500
H421        H  0.22025960  0.26368531  0.91933451     0.16400
O422        O  0.17609313  0.21337018  0.92571278    -0.60600
H423        H  0.15222953  0.22490700  0.92198683     0.43400
H424        H  0.25274048  0.25433155  0.80951198     0.43300
C425        C  0.22932339  0.12575843  0.97149365    -0.05700
C426        C  0.21149493  0.12322593  0.00090775    -0.33100
C427        C  0.22807125  0.13587947  0.02774688     0.36100
C428        C  0.26315709  0.15143587  0.02550243    -0.06100
C429        C  0.28113839  0.15347537  0.99614697    -0.33000
C430        C  0.26480787  0.14055592  0.96944742     0.36000
H431        H  0.18430119  0.11171254  0.00319936     0.16400
O432        O  0.20998116  0.13228092  0.05598935    -0.60500
H433        H  0.30835890  0.16489543  0.99372009     0.16400
O434        O  0.28360558  0.14325273  0.94143779    -0.60600
H435        H  0.29914226  0.12324631  0.94000966     0.43400
H436        H  0.19281798  0.15123424  0.05745573     0.43300
C437        C  0.26251957  0.37743042  0.96975695    -0.05700
C438        C  0.27427517  0.36646875  0.99929269    -0.33100
C439        C  0.25778446  0.37828331  0.02679620     0.36100
C440        C  0.22922914  0.40182361  0.02517071    -0.06100
C441        C  0.21712168  0.41245534  0.99562471    -0.33000
C442        C  0.23352695  0.40056731  0.96811244     0.36000
H443        H  0.29647461  0.34861956  0.00114427     0.16400
O444        O  0.26947238  0.36626432  0.05504916    -0.60500
H445        H  0.19492753  0.43029742  0.99377908     0.16400
O446        O  0.22147195  0.41229067  0.93985734    -0.60600
H447        H  0.23648638  0.43234084  0.93584655     0.43400
H448        H  0.25568357  0.34538210  0.05803421     0.43300
C449        C  0.11931358  0.49895747  0.02800379    -0.05700
C450        C  0.12262232  0.48001157  0.00069349    -0.33100
C451        C  0.12375576  0.99469172  0.97093823     0.36100
C452        C  0.11969055  0.02891463  0.96788096    -0.06100
C453        C  0.11434581  0.04768679  0.99517765    -0.33000
C454        C  0.11500131  0.03311291  0.02498567     0.36000
H455        H  0.12635826  0.45373483  0.00239869     0.16400
O456        O  0.12811160  0.47531881  0.94508272    -0.60500
H457        H  0.11128010  0.07403603  0.99355444     0.16400
O458        O  0.11054926  0.05235882  0.05101100    -0.60600
H459        H  0.13544412  0.06225709  0.05468372     0.43400
H460        H  0.15531032  0.47101018  0.94377451     0.43300
C461        C  0.19922510  0.33343512  0.12305849    -0.05700
C462        C  0.19794106  0.31186595  0.09739520    -0.33100
C463        C  0.22056496  0.28384232  0.09613942     0.36100
C464        C  0.24543154  0.27703688  0.12061080    -0.06100
C465        C  0.24517500  0.29738513  0.14704947    -0.33000
C466        C  0.22229327  0.32516335  0.14854953     0.36000
H467        H  0.18094842  0.31765704  0.07731659     0.16400
O468        O  0.22027128  0.26476294  0.06977591    -0.60500
H469        H  0.26329577  0.29201962  0.16654867     0.16400
O470        O  0.22327207  0.34434309  0.17486985    -0.60600
H471        H  0.24668988  0.35727636  0.17303800     0.43400
H472        H  0.19916336  0.24928915  0.07292906     0.43300
C473        C  0.24994793  0.02693883  0.12139135    -0.05700
C474        C  0.27607373  0.03205034  0.09721277    -0.33100
C475        C  0.29971763  0.05948983  0.09737310     0.36100
C476        C  0.29725316  0.08253893  0.12197592    -0.06100
C477        C  0.27381046  0.07536810  0.14770227    -0.33000
C478        C  0.25038724  0.04788944  0.14756261     0.36000
H479        H  0.27659560  0.51563301  0.07722733     0.16400
O480        O  0.32302235  0.06466727  0.07219215    -0.60500
H481        H  0.27193085  0.09210945  0.16729097     0.16400
O482        O  0.22723396  0.04230554  0.17278991    -0.60600
H483        H  0.24093691  0.02672896  0.18628615     0.43400
H484        H  0.34651825  0.05331363  0.07755337     0.43300
C485        C  0.96027764  0.10092365  0.86529991    -0.05700
C486        C  0.97965077  0.12910106  0.87495490    -0.33100
C487        C  0.01887424  0.12965072  0.87521392     0.36100
C488        C  0.03911290  0.10152758  0.86616105    -0.06100
C489        C  0.01969381  0.07514421  0.85294070    -0.33000
C490        C  0.98083573  0.07470287  0.85229026     0.36000
H491        H  0.96451482  0.14981413  0.88442230     0.16400
O492        O  0.03677652  0.15662174  0.88695902    -0.60500
H493        H  0.03458470  0.05370214  0.84473709     0.16400
O494        O  0.96334694  0.04725901  0.84100858    -0.60600
H495        H  0.95635586  0.05288941  0.81926139     0.43400
H496        H  0.04345650  0.17010512  0.86837598     0.43300
C497        C  0.76607065  0.12550284  0.96877919    -0.05700
C498        C  0.73775468  0.14879021  0.96512302    -0.33100
C499        C  0.71970866  0.16228416  0.99117557     0.36100
C500        C  0.72998966  0.15259068  0.02161328    -0.06100
C501        C  0.75838317  0.12937000  0.02525235    -0.33000
C502        C  0.77642505  0.11588956  0.99920682     0.36000
H503        H  0.73007235  0.15718400  0.94199079     0.16400
O504        O  0.69281972  0.18561089  0.98661729    -0.60500
H505        H  0.76609042  0.12096108  0.04837082     0.16400
O506        O  0.80335119  0.09260228  0.00376684    -0.60600
H507        H  0.82578217  0.10494410  0.01044660     0.43400
H508        H  0.67057591  0.17338190  0.97935918     0.43300
C509        C  0.74475558  0.24846320  0.87621655    -0.05700
C510        C  0.77292280  0.24497933  0.89864474    -0.33100
C511        C  0.79718039  0.21797140  0.89802406     0.36100
C512        C  0.79421777  0.19418120  0.87414531    -0.06100
C513        C  0.76720568  0.19881566  0.85087226    -0.33000
C514        C  0.74259932  0.22529941  0.85187262     0.36000
H515        H  0.77538807  0.26267163  0.91737980     0.16400
O516        O  0.82294257  0.21474792  0.92134756    -0.60500
H517        H  0.76390805  0.18102275  0.83232444     0.16400
O518        O  0.71616812  0.22794320  0.82900599    -0.60600
H519        H  0.72736687  0.24269911  0.81297630     0.43400
H520        H  0.80915057  0.20458478  0.93913581     0.43300
C521        C  0.75020850  0.99991628  0.87348730    -0.05700
C522        C  0.72352066  0.99525696  0.89735109    -0.33100
C523        C  0.70059362  0.46735009  0.89791317     0.36100
C524        C  0.70338873  0.44377352  0.87378238    -0.06100
C525        C  0.72869740  0.44965428  0.84900247    -0.33000
C526        C  0.75225506  0.47708477  0.84898002     0.36000
H527        H  0.72160620  0.01257407  0.91647239     0.16400
O528        O  0.67715072  0.46256577  0.92306736    -0.60500
H529        H  0.73155241  0.43215762  0.83010971     0.16400
O530        O  0.77684126  0.48146336  0.82448581    -0.60600
H531        H  0.79845846  0.46728153  0.82933064     0.43400
H532        H  0.65285091  0.97237287  0.91663598     0.43300
C533        C  0.95666083  0.42697443  0.12557297    -0.05700
C534        C  0.97564885  0.45130410  0.14241951    -0.33100
C535        C  0.01470545  0.45198559  0.14348514     0.36100
C536        C  0.03578008  0.42803953  0.12750100    -0.06100
C537        C  0.01677367  0.40193979  0.11317174    -0.33000
C538        C  0.97755659  0.40121908  0.11219673     0.36000
H539        H  0.96020738  0.47088143  0.15364214     0.16400
O540        O  0.03205042  0.47662027  0.15969434    -0.60500
H541        H  0.03229835  0.38320481  0.10078750     0.16400
O542        O  0.96028011  0.37691135  0.09557813    -0.60600
H543        H  0.95694455  0.35857650  0.11063083     0.43400
H544        H  0.03014442  0.49636092  0.14621750     0.43300
C545        C  0.87664179  0.49811518  0.02559997    -0.05700
C546        C  0.87595493  0.47930916  0.99809024    -0.33100
C547        C  0.87622850  0.99417041  0.96829459     0.36100
C548        C  0.87780991  0.02858657  0.96576411    -0.06100
C549        C  0.88099703  0.04725990  0.99325010    -0.33000
C550        C  0.87972120  0.03232664  0.02283418     0.36000
H551        H  0.87363781  0.45287071  0.99947608     0.16400
O552        O  0.87375246  0.97490444  0.94214268    -0.60500
H553        H  0.88273150  0.07372880  0.99191427     0.16400
O554        O  0.88177627  0.05146570  0.04910455    -0.60600
H555        H  0.85618545  0.06004737  0.05241448     0.43400
H556        H  0.89939303  0.47096911  0.93564708     0.43300
C557        C  0.76297275  0.40174128  0.02409390    -0.05700
C558        C  0.73410368  0.37866619  0.02751529    -0.33100
C559        C  0.71692819  0.36515221  0.00129265     0.36100
C560        C  0.72842759  0.37477184  0.97092197    -0.06100
C561        C  0.75700845  0.39810023  0.96752407    -0.33000
C562        C  0.77398855  0.41177462  0.99372688     0.36000
H563        H  0.72545257  0.37034788  0.05057938     0.16400
O564        O  0.68900831  0.34248218  0.00569201    -0.60500
H565        H  0.76557845  0.40650155  0.94446392     0.16400
O566        O  0.80124896  0.43503386  0.98929587    -0.60600
H567        H  0.78813113  0.45637242  0.99043523     0.43400
H568        H  0.70160742  0.32090648  0.00521214     0.43300
C569        C  0.74492250  0.02626871  0.11757970    -0.05700
C570        C  0.71960841  0.03109287  0.09315133    -0.33100
C571        C  0.69625882  0.05864291  0.09275109     0.36100
C572        C  0.69737568  0.08157120  0.11751385    -0.06100
C573        C  0.72034492  0.07488619  0.14323366    -0.33000
C574        C  0.74421459  0.04785861  0.14323592     0.36000
H575        H  0.71858389  0.51433472  0.07400254     0.16400
O576        O  0.67372145  0.06351730  0.06740891    -0.60500
H577        H  0.72143773  0.09165496  0.16282209     0.16400
O578        O  0.76664028  0.04267074  0.16859582    -0.60600
H579        H  0.78818163  0.05772033  0.16560996     0.43400
H580        H  0.69004131  0.07372399  0.05121112     0.43300
C581        C  0.74550450  0.27661910  0.11960717    -0.05700
C582        C  0.77491133  0.28039607  0.09790876    -0.33100
C583        C  0.79819863  0.30818657  0.09850583     0.36100
C584        C  0.79271135  0.33269678  0.12143400    -0.06100
C585        C  0.76517449  0.32738342  0.14462334    -0.33000
C586        C  0.74180135  0.29984411  0.14384990     0.36000
H587        H  0.77890174  0.26247102  0.07953317     0.16400
O588        O  0.82541813  0.31153498  0.07592571    -0.60500
H589        H  0.76035639  0.34546669  0.16272133     0.16400
O590        O  0.71482714  0.29634798  0.16663301    -0.60600
H591        H  0.72635236  0.28252096  0.18300832     0.43400
H592        H  0.81236905  0.31980075  0.05715305     0.43300
C593        C  0.67182570  0.32484284  0.71410195    -0.05700
C594        C  0.70545509  0.32948503  0.73024385    -0.33100
C595        C  0.70631898  0.32940472  0.76300089     0.36100
C596        C  0.67313230  0.32448695  0.78044912    -0.06100
C597        C  0.63950805  0.31996801  0.76427681    -0.33000
C598        C  0.63858845  0.32020258  0.73160372     0.36000
H599        H  0.73142149  0.33302837  0.71747117     0.16400
O600        O  0.73994451  0.33350967  0.77755318    -0.60500
H601        H  0.61351349  0.31618391  0.77695947     0.16400
O602        O  0.60497334  0.31541199  0.71718206    -0.60600
H603        H  0.59391587  0.33754990  0.71524287     0.43400
H604        H  0.74300832  0.35754423  0.77982858     0.43300
C605        C  0.66925851  0.20029777  0.21227019    -0.05700
C606        C  0.70324171  0.19617623  0.22794472    -0.33100
C607        C  0.70478094  0.19627082  0.26067193     0.36100
C608        C  0.67194740  0.20092361  0.27863210    -0.06100
C609        C  0.63785208  0.20435830  0.26295403    -0.33000
C610        C  0.63627038  0.20408834  0.23024854     0.36000
H611        H  0.72900507  0.19312058  0.21482033     0.16400
O612        O  0.73877475  0.19258154  0.27468675    -0.60500
H613        H  0.61207074  0.20741395  0.27606085     0.16400
O614        O  0.60214888  0.20708628  0.21625814    -0.60600
H615        H  0.59743588  0.23098829  0.21517366     0.43400
H616        H  0.74221406  0.16857427  0.27677031     0.43300
C617        C  0.62141144  0.28011170  0.52607025    -0.05700
C618        C  0.62370003  0.29879113  0.49844598    -0.33100
C619        C  0.62410349  0.28373062  0.46903804     0.36100
C620        C  0.62118034  0.24936737  0.46673494    -0.06100
C621        C  0.61671357  0.23083842  0.49436317    -0.33000
C622        C  0.61739910  0.24588110  0.52383136     0.36000
H623        H  0.62680999  0.32517465  0.49965863     0.16400
O624        O  0.62837158  0.30283993  0.44279467    -0.60500
H625        H  0.61433346  0.20439351  0.49324784     0.16400
O626        O  0.61373760  0.22695560  0.55026059    -0.60600
H627        H  0.63897089  0.21796300  0.55404243     0.43400
H628        H  0.60264660  0.30772243  0.43590929     0.43300
C629        C  0.32132413  0.32732130  0.71300148    -0.05700
C630        C  0.35538575  0.32556741  0.72901580    -0.33100
C631        C  0.35653739  0.32596040  0.76170171     0.36100
C632        C  0.32312130  0.32783406  0.77938475    -0.06100
C633        C  0.28909080  0.33016046  0.76340495    -0.33000
C634        C  0.28798717  0.33004989  0.73062485     0.36000
H635        H  0.38152892  0.32384402  0.71617672     0.16400
O636        O  0.39059867  0.32411859  0.77596583    -0.60500
H637        H  0.26300047  0.33166133  0.77632940     0.16400
O638        O  0.25401184  0.33152970  0.71621791    -0.60600
H639        H  0.24809805  0.35521309  0.71489682     0.43400
H640        H  0.39873800  0.34717616  0.77872305     0.43300
C641        C  0.45912058  0.34965424  0.62732729    -0.05700
C642        C  0.47856536  0.37772095  0.61694107    -0.33100
C643        C  0.51778926  0.37835443  0.61614266     0.36100
C644        C  0.53807777  0.35069656  0.62604830    -0.06100
C645        C  0.51847073  0.32421848  0.63952104    -0.33000
C646        C  0.47954477  0.32356493  0.64031954     0.36000
H647        H  0.46347898  0.39830467  0.60730757     0.16400
O648        O  0.53575664  0.40525023  0.60385279    -0.60500
H649        H  0.53334441  0.30298819  0.64808737     0.16400
O650        O  0.46186042  0.29628661  0.65215723    -0.60600
H651        H  0.45399974  0.30239187  0.67368207     0.43400
H652        H  0.53652973  0.40155439  0.58092473     0.43300
C653        C  0.32460046  0.20087370  0.28029860    -0.05700
C654        C  0.29173466  0.19276323  0.26440488    -0.33100
C655        C  0.29072763  0.19258325  0.23176894     0.36100
C656        C  0.32289655  0.20110314  0.21422244    -0.06100
C657        C  0.35599767  0.20855497  0.23011619    -0.33000
C658        C  0.35714406  0.20831745  0.26274529     0.36000
H659        H  0.26642687  0.18669534  0.27726287     0.16400
O660        O  0.25787939  0.18455568  0.21742583    -0.60500
H661        H  0.38123889  0.21487773  0.21726615     0.16400
O662        O  0.39010305  0.21610165  0.27706048    -0.60600
H663        H  0.40346868  0.19500527  0.27931186     0.43400
H664        H  0.25805923  0.16031500  0.21584207     0.43300
C665        C  0.45772582  0.18000087  0.36979671    -0.05700
C666        C  0.47671855  0.15236762  0.38122583    -0.33100
C667        C  0.51596737  0.15112897  0.38079740     0.36100
C668        C  0.53686414  0.17802059  0.36918671    -0.06100
C669        C  0.51768322  0.20398583  0.35497537    -0.33000
C670        C  0.47871193  0.20503954  0.35500511     0.36000
H671        H  0.46128366  0.13252713  0.39225633     0.16400
O672        O  0.53338257  0.12478784  0.39414463    -0.60500
H673        H  0.53298056  0.22452135  0.34501765     0.16400
O674        O  0.46155834  0.23168610  0.34193124    -0.60600
H675        H  0.45581509  0.22503109  0.32020460     0.43400
H676        H  0.53711035  0.10898759  0.37681130     0.43300
C677        C  0.37041253  0.25418921  0.46591851    -0.05700
C678        C  0.33762543  0.26684225  0.47916588    -0.33100
C679        C  0.33791856  0.28114648  0.50879095     0.36100
C680        C  0.37150318  0.28356062  0.52537796    -0.06100
C681        C  0.40469938  0.27194268  0.51184673    -0.33000
C682        C  0.40416479  0.25665829  0.48242601     0.36000
H683        H  0.31136847  0.26461651  0.46694886     0.16400
O684        O  0.30508699  0.29221602  0.52171658    -0.60500
H685        H  0.43072505  0.27396774  0.52439950     0.16400
O686        O  0.43673557  0.24492441  0.46969751    -0.60600
H687        H  0.43972058  0.22270951  0.47876901     0.43400
H688        H  0.29780699  0.31126968  0.50883797     0.43300
C689        C  0.17397355  0.08031110  0.71487678    -0.05700
C690        C  0.20817621  0.08009463  0.73067319    -0.33100
C691        C  0.20923491  0.07970994  0.76341591     0.36100
C692        C  0.17565080  0.07918598  0.78097229    -0.06100
C693        C  0.14157319  0.08051307  0.76512370    -0.33000
C694        C  0.14050189  0.08138121  0.73254008     0.36000
H695        H  0.23426071  0.07946117  0.71765776     0.16400
O696        O  0.24321943  0.07842410  0.77784136    -0.60500
H697        H  0.11539322  0.08084877  0.77802527     0.16400
O698        O  0.10639150  0.08282921  0.71831523    -0.60600
H699        H  0.10151229  0.10651368  0.71521744     0.43400
H700        H  0.25113177  0.10160150  0.78011241     0.43300
C701        C  0.29665046  0.44651858  0.62024634    -0.05700
C702        C  0.27227385  0.45250552  0.64559205    -0.33100
C703        C  0.24834616  0.47947222  0.64572393     0.36100
C704        C  0.24823877  0.00158177  0.62013146    -0.06100
C705        C  0.27437655  0.99702997  0.59579627    -0.33000
C706        C  0.29809752  0.46959492  0.59548985     0.36000
H707        H  0.27038436  0.43533601  0.66492307     0.16400
O708        O  0.22424344  0.48348176  0.67054242    -0.60500
H709        H  0.27540918  0.01401905  0.57627690     0.16400
O710        O  0.32098604  0.46485050  0.56999159    -0.60600
H711        H  0.30516138  0.95398904  0.55407219     0.43400
H712        H  0.23774411  0.49771886  0.68546450     0.43300
C713        C  0.24607224  0.25237977  0.61579776    -0.05700
C714        C  0.24547726  0.23162847  0.64201647    -0.33100
C715        C  0.22253244  0.20382772  0.64322824     0.36100
C716        C  0.19988927  0.19545176  0.61746284    -0.06100
C717        C  0.19914950  0.21713803  0.59173423    -0.33000
C718        C  0.22172211  0.24550689  0.59090177     0.36000
H719        H  0.26340357  0.23674262  0.66170659     0.16400
O720        O  0.22418423  0.18409784  0.66920741    -0.60500
H721        H  0.18248948  0.21129886  0.57146968     0.16400
O722        O  0.22187244  0.26487347  0.56463622    -0.60600
H723        H  0.20054765  0.28001422  0.56750854     0.43400
H724        H  0.20362882  0.19167087  0.68308684     0.43300
C725        C  0.26271894  0.15487489  0.47067148    -0.05700
C726        C  0.23078931  0.13531183  0.46698506    -0.33100
C727        C  0.21376743  0.12025464  0.49273393     0.36100
C728        C  0.22837271  0.12508057  0.52297040    -0.06100
C729        C  0.25974405  0.14524803  0.52668197    -0.33000
C730        C  0.27670756  0.16030134  0.50099236     0.36000
H731        H  0.21964018  0.13064582  0.44393508     0.16400
O732        O  0.18278969  0.10109871  0.48796203    -0.60500
H733        H  0.27092379  0.14996889  0.54970873     0.16400
O734        O  0.30730969  0.17985758  0.50590964    -0.60600
H735        H  0.29729362  0.20238023  0.50798727     0.43400
H736        H  0.19249087  0.07861611  0.48473404     0.43300
C737        C  0.17792675  0.45277306  0.28203117    -0.05700
C738        C  0.15280901  0.47387924  0.26697551    -0.33100
C739        C  0.15040424  0.47474984  0.23425277     0.36100
C740        C  0.17386941  0.45476026  0.21582122    -0.06100
C741        C  0.19929746  0.43403327  0.23077497    -0.33000
C742        C  0.20119353  0.43261807  0.26344488     0.36000
H743        H  0.13464528  0.48965202  0.28058305     0.16400
O744        O  0.12607154  0.49619025  0.22055200    -0.60500
H745        H  0.21756216  0.41843170  0.21706258     0.16400
O746        O  0.22661497  0.41195489  0.27682352    -0.60600
H747        H  0.21401897  0.39028986  0.27782754     0.43400
H748        H  0.10155854  0.48482348  0.22092730     0.43300
C749        C  0.23678154  0.40462318  0.46808773    -0.05700
C750        C  0.27538588  0.40829222  0.47098264    -0.33100
C751        C  0.29335849  0.39699186  0.49783312     0.36100
C752        C  0.27243586  0.38234447  0.52246295    -0.06100
C753        C  0.23368242  0.38041474  0.52022419    -0.33000
C754        C  0.21582384  0.39112188  0.49330208     0.36000
H755        H  0.29181551  0.41872261  0.45198489     0.16400
O756        O  0.33126853  0.40101656  0.50003361    -0.60500
H757        H  0.21716674  0.36975362  0.53906134     0.16400
O758        O  0.17767492  0.38841322  0.49194899    -0.60600
H759        H  0.17262800  0.36497282  0.48747205     0.43400
H760        H  0.34222677  0.38255076  0.48804948     0.43300
C761        C  0.11699602  0.02138638  0.53262303    -0.05700
C762        C  0.10581523  0.03633995  0.50455791    -0.33100
C763        C  0.10613581  0.01904621  0.47615601     0.36100
C764        C  0.11801339  0.48597164  0.47520855    -0.06100
C765        C  0.12629606  0.47036824  0.50369857    -0.33000
C766        C  0.12627471  0.98775590  0.53202360     0.36000
H767        H  0.09840421  0.06204662  0.50426268     0.16400
O768        O  0.09676781  0.03533175  0.44927851    -0.60500
H769        H  0.13439374  0.44483283  0.50403657     0.16400
O770        O  0.13567842  0.47124784  0.55888272    -0.60600
H771        H  0.16334271  0.47029840  0.55861548     0.43400
H772        H  0.06945025  0.03214751  0.44727656     0.43300
C773        C  0.19286576  0.32821272  0.36716080    -0.05700
C774        C  0.21895899  0.32243846  0.34309291    -0.33100
C775        C  0.24283095  0.29544008  0.34415282     0.36100
C776        C  0.24108626  0.27354180  0.36970302    -0.06100
C777        C  0.21226541  0.27730867  0.39201797    -0.33000
C778        C  0.18829852  0.30451253  0.39091250     0.36000
H779        H  0.22312161  0.34058090  0.32480127     0.16400
O780        O  0.26908641  0.29172225  0.32086770    -0.60500
H781        H  0.20994374  0.26042474  0.41154804     0.16400
O782        O  0.16389909  0.30984983  0.41526752    -0.60600
H783        H  0.14047429  0.29869309  0.40912606     0.43400
H784        H  0.25798571  0.27585753  0.30604948     0.43300
C785        C  0.24227879  0.03125424  0.38128083    -0.05700
C786        C  0.25933040  0.04133561  0.40898301    -0.33100
C787        C  0.28514533  0.06734954  0.40879625     0.36100
C788        C  0.29367401  0.08415655  0.38056683    -0.06100
C789        C  0.27717976  0.07316800  0.35274522    -0.33000
C790        C  0.25220351  0.04668771  0.35291739     0.36000
H791        H  0.25134250  0.52948552  0.43103431     0.16400
O792        O  0.30138503  0.07643222  0.43640858    -0.60500
H793        H  0.28291070  0.08569482  0.33082545     0.16400
O794        O  0.23642828  0.03684789  0.32535106    -0.60600
H795        H  0.25399732  0.02054851  0.31643163     0.43400
H796        H  0.28128243  0.08694260  0.44887273     0.43300
C797        C  0.82633901  0.07668849  0.77839669    -0.05700
C798        C  0.79238253  0.07901287  0.76233569    -0.33100
C799        C  0.79142305  0.07895748  0.72955897     0.36100
C800        C  0.82485429  0.07625050  0.71198563    -0.06100
C801        C  0.85883544  0.07454959  0.72806873    -0.33000
C802        C  0.85983958  0.07500701  0.76077584     0.36000
H803        H  0.76624001  0.08047978  0.77519130     0.16400
O804        O  0.75747664  0.08061714  0.71510832    -0.60500
H805        H  0.88500926  0.07290204  0.71527020     0.16400
O806        O  0.89386255  0.07349276  0.77513511    -0.60600
H807        H  0.90178968  0.09661987  0.77775029     0.43400
H808        H  0.75208107  0.10435077  0.71320885     0.43300
C809        C  0.03785041  0.10384706  0.62668884    -0.05700
C810        C  0.01959002  0.12815107  0.60929319    -0.33100
C811        C  0.98054476  0.12904330  0.60809888     0.36100
C812        C  0.95930443  0.10531321  0.62443646    -0.06100
C813        C  0.97752511  0.08340462  0.64449686    -0.33000
C814        C  0.01647121  0.08272824  0.64590549     0.36000
H815        H  0.03550807  0.14477455  0.59448613     0.16400
O816        O  0.96379108  0.15063810  0.58806114    -0.60500
H817        H  0.96156787  0.06547545  0.65781420     0.16400
O818        O  0.03334143  0.05995430  0.66464950    -0.60600
H819        H  0.03642550  0.07097797  0.68511834     0.43400
H820        H  0.96216133  0.17151760  0.59980066     0.43300
C821        C  0.76688778  0.12686896  0.52223172    -0.05700
C822        C  0.78108852  0.11967738  0.49223175    -0.33100
C823        C  0.76383618  0.13162033  0.46537790     0.36100
C824        C  0.73176735  0.15133593  0.46814095    -0.06100
C825        C  0.71772724  0.15871784  0.49815464    -0.33000
C826        C  0.73507461  0.14688971  0.52500468     0.36000
H827        H  0.80574828  0.10462311  0.48946180     0.16400
O828        O  0.77846644  0.12355310  0.43663805    -0.66900
H829        H  0.69312646  0.17384280  0.50094275     0.16400
O830        O  0.72087691  0.15547244  0.55375817    -0.60600
H831        H  0.73364269  0.17627392  0.55918964     0.43400
H832        H  0.76653189  0.10239283  0.43110604     0.43300
C833        C  0.74848864  0.25068059  0.61946745    -0.05700
C834        C  0.78106233  0.24972463  0.60080643    -0.33100
C835        C  0.80429795  0.22199562  0.60076127     0.36100
C836        C  0.79540259  0.19474431  0.61988162    -0.06100
C837        C  0.76419723  0.19678192  0.63993859    -0.33000
C838        C  0.74071417  0.22394989  0.63958195     0.36000
H839        H  0.78793165  0.27005860  0.58543651     0.16400
O840        O  0.83475738  0.22140821  0.58111417    -0.60500
H841        H  0.75649283  0.17637317  0.65495675     0.16400
O842        O  0.71004800  0.22387364  0.65907444    -0.60600
H843        H  0.69072498  0.21117637  0.64782490     0.43400
H844        H  0.85581908  0.22941817  0.59391955     0.43300
C845        C  0.74993955  0.00128197  0.61793796    -0.05700
C846        C  0.72406630  0.99596601  0.59405182    -0.33100
C847        C  0.69989528  0.46865680  0.59512000     0.36100
C848        C  0.70154174  0.44595500  0.62017019    -0.06100
C849        C  0.72575470  0.45272286  0.64508972    -0.33000
C850        C  0.74969858  0.47990501  0.64421572     0.36000
H851        H  0.72341088  0.01228769  0.57402883     0.16400
O852        O  0.67642634  0.46364193  0.57040867    -0.60500
H853        H  0.72753373  0.43601453  0.66475434     0.16400
O854        O  0.77341192  0.48503810  0.66874982    -0.60600
H855        H  0.76041650  0.50097127  0.68249935     0.43400
H856        H  0.69301056  0.95261642  0.55365256     0.43300
C857        C  0.82135393  0.45434857  0.27960395    -0.05700
C858        C  0.78821788  0.46163140  0.26374414    -0.33100
C859        C  0.78726408  0.46193768  0.23093656     0.36100
C860        C  0.81967258  0.45438243  0.21342475    -0.06100
C861        C  0.85264486  0.44686422  0.22934030    -0.33000
C862        C  0.85370202  0.44681660  0.26203233     0.36000
H863        H  0.76314851  0.46780317  0.27679588     0.16400
O864        O  0.75474495  0.47027838  0.21630153    -0.60500
H865        H  0.87776461  0.44063472  0.21637478     0.16400
O866        O  0.88615486  0.43802752  0.27656660    -0.60600
H867        H  0.90204240  0.45796525  0.27609316     0.43400
H868        H  0.75516952  0.49457007  0.21504308     0.43300
C869        C  0.95956268  0.42934973  0.36519076    -0.05700
C870        C  0.97817167  0.40208956  0.37750830    -0.33100
C871        C  0.01722539  0.40133654  0.37864001     0.36100
C872        C  0.03852388  0.42805840  0.36704729    -0.06100
C873        C  0.01997036  0.45368700  0.35182287    -0.33000
C874        C  0.98092249  0.45468487  0.35111404     0.36000
H875        H  0.96246239  0.38226847  0.38830299     0.16400
O876        O  0.03406708  0.37519427  0.39286317    -0.60500
H877        H  0.03558390  0.47426107  0.34230410     0.16400
O878        O  0.96392621  0.48115473  0.33752017    -0.60600
H879        H  0.96616444  0.49919667  0.35291788     0.43400
H880        H  0.04095427  0.36015585  0.37557324     0.43300
C881        C  0.88130725  0.49918701  0.46544403    -0.05700
C882        C  0.87760183  0.48068657  0.49303109    -0.33100
C883        C  0.87776245  0.99591780  0.52213506     0.36100
C884        C  0.88178344  0.03022990  0.52446264    -0.06100
C885        C  0.88837068  0.04844468  0.49688409    -0.33000
C886        C  0.88785369  0.03329599  0.46740476     0.36000
H887        H  0.87294772  0.45447812  0.49179351     0.16400
O888        O  0.87181072  0.97695981  0.54826076    -0.60500
H889        H  0.89205570  0.07477515  0.49797615     0.16400
O890        O  0.89403025  0.55158349  0.44125555    -0.60600
H891        H  0.86930975  0.06234552  0.43671672     0.43400
H892        H  0.89701678  0.97039563  0.55518200     0.43300
C893        C  0.76786713  0.40258018  0.47037051    -0.05700
C894        C  0.74314619  0.37603497  0.46822132    -0.33100
C895        C  0.72646481  0.36278250  0.49504275     0.36100
C896        C  0.73396790  0.37637918  0.52462132    -0.06100
C897        C  0.75883083  0.40286884  0.52684546    -0.33000
C898        C  0.77561434  0.41610058  0.49996044     0.36000
H899        H  0.73752652  0.36488691  0.44575085     0.16400
O900        O  0.70295266  0.33641173  0.49208604    -0.60500
H901        H  0.76429181  0.41406044  0.54932615     0.16400
O902        O  0.79912807  0.44248536  0.50281443    -0.60600
H903        H  0.78274891  0.46200131  0.50208850     0.43400
H904        H  0.71911992  0.31687351  0.49411480     0.43300
C905        C  0.74799570  0.02761048  0.37598606    -0.05700
C906        C  0.75031664  0.04941981  0.35063978    -0.33100
C907        C  0.72682312  0.07657506  0.34868170     0.36100
C908        C  0.70030129  0.08282388  0.37264487    -0.06100
C909        C  0.69656607  0.05989063  0.39720232    -0.33000
C910        C  0.71990171  0.03233944  0.39883592     0.36000
H911        H  0.77093333  0.04570303  0.33227594     0.16400
O912        O  0.73095197  0.09735339  0.32357534    -0.60500
H913        H  0.67676441  0.06409859  0.41606847     0.16400
O914        O  0.71544233  0.51109820  0.42378624    -0.60600
H915        H  0.69634965  0.49485236  0.41743145     0.43400
H916        H  0.75303165  0.11112867  0.32838423     0.43300
C917        C  0.79685786  0.33315674  0.37152681    -0.05700
C918        C  0.79844274  0.31097417  0.39681724    -0.33100
C919        C  0.77608995  0.28253572  0.39761520     0.36100
C920        C  0.75087798  0.27613011  0.37323059    -0.06100
C921        C  0.75105527  0.29705778  0.34709898    -0.33000
C922        C  0.77408716  0.32490277  0.34583499     0.36000
H923        H  0.81550922  0.31652314  0.41691568     0.16400
O924        O  0.77699817  0.26262185  0.42348561    -0.60500
H925        H  0.73276859  0.29204949  0.32762201     0.16400
O926        O  0.77260749  0.34468952  0.31989480    -0.60600
H927        H  0.79377163  0.33762692  0.30641941     0.43400
H928        H  0.79800871  0.24738549  0.41959265     0.43300
O929        O  0.90667429  0.96218824  0.37274738    -0.85600
O930        O  0.85277696  0.96187810  0.32756976    -0.82600
C931        C  0.82259440  0.95491999  0.31409975     0.97900
O932        O  0.79295972  0.94965944  0.32996838    -0.82700
O933        O  0.80253971  0.88922128  0.35688694    -0.85300
C934        C  0.81314870  0.86680695  0.37494852     1.02400
O935        O  0.83364406  0.87401398  0.39801455    -0.78100
O936        O  0.89875106  0.90940892  0.37922806    -0.78300
C937        C  0.91941124  0.93335541  0.37152228     1.02300
O938        O  0.85699225  0.99698409  0.41356108    -0.85600
O939        O  0.80674433  0.00356800  0.36448088    -0.82700
C940        C  0.77516562  0.00036374  0.37760774     0.97900
O941        O  0.76641553  0.97357033  0.39029097    -0.82700
O942        O  0.77296168  0.91179599  0.41554306    -0.85300
C943        C  0.78827557  0.91383556  0.44211397     1.02400
O944        O  0.82169662  0.92275070  0.44451351    -0.78100
O945        O  0.88656531  0.95370924  0.43100169    -0.78300
C946        C  0.87524328  0.98285513  0.43485122     1.02300
Cr947      Cr  0.85426241  0.97856316  0.37070632     1.93700
Cr948      Cr  0.78721323  0.93197294  0.37402371     1.93200
Cr949      Cr  0.85850278  0.91669153  0.41081566     1.39100
O950        O  0.83321505  0.94222927  0.38511544    -1.23300
O951        O  0.90805026  0.56981039  0.61637225    -0.85600
O952        O  0.85511968  0.56867259  0.66309593    -0.82600
C953        C  0.82504376  0.57500889  0.67743343     0.97900
O954        O  0.79523321  0.57966861  0.66224038    -0.82700
O955        O  0.80474727  0.63957000  0.63494127    -0.85300
C956        C  0.81346098  0.66217421  0.61622091     1.02400
O957        O  0.83293271  0.65561751  0.59214792    -0.78100
O958        O  0.89863990  0.62227870  0.60897294    -0.78300
C959        C  0.91972404  0.59913275  0.61705997     1.02300
O960        O  0.85798514  0.53350825  0.57707188    -0.85600
O961        O  0.80897132  0.52586160  0.62759639    -0.82700
C962        C  0.77689099  0.52865606  0.61578522     0.97900
O963        O  0.76757262  0.55520808  0.60312970    -0.82700
O964        O  0.77285685  0.61710870  0.57738732    -0.85300
C965        C  0.78739007  0.61557154  0.55023579     1.02400
O966        O  0.82058693  0.60638182  0.54664448    -0.78100
O967        O  0.88661270  0.57682424  0.55804027    -0.78300
C968        C  0.87549329  0.54746109  0.55490117     1.02300
Cr969      Cr  0.85603780  0.55193945  0.61988064     1.93700
Cr970      Cr  0.78845684  0.59709789  0.61842252     1.93200
Cr971      Cr  0.85819085  0.61345321  0.57885552     1.39100
O972        O  0.83410830  0.58758853  0.60573525    -1.23300
O973        O  0.16362333  0.97449890  0.33271943    -0.85600
O974        O  0.09868505  0.95269763  0.36022446    -0.82600
C975        C  0.07897580  0.93167523  0.37448049     0.97900
O976        O  0.09232874  0.91535768  0.39673844    -0.82700
O977        O  0.14993443  0.87207752  0.37987585    -0.85300
C978        C  0.18275419  0.86274168  0.37336990     1.02400
O979        O  0.20975623  0.88239163  0.37548170    -0.78100
O980        O  0.19636251  0.92882856  0.33047616    -0.78300
C981        C  0.17937855  0.95191329  0.31693975     1.02300
O982        O  0.18506198  0.00334787  0.39277111    -0.85600
O983        O  0.11941691  0.98225036  0.41914371    -0.82700
C984        C  0.12480435  0.96822010  0.44519779     0.97900
O985        O  0.13750959  0.93943675  0.44618305    -0.82700
O986        O  0.19023965  0.89431707  0.43223607    -0.85300
C987        C  0.21857416  0.91137543  0.43828803     1.02400
O988        O  0.23086402  0.93212147  0.41851727    -0.78100
O989        O  0.22883544  0.97686231  0.36812355    -0.78300
C990        C  0.21745236  0.00240429  0.38121457     1.02300
Cr991      Cr  0.14357921  0.97507716  0.37702924     1.93700
Cr992      Cr  0.14394160  0.90789555  0.41146634     1.93200
Cr993      Cr  0.21265720  0.93072439  0.37436480     1.39100
O994        O  0.16615877  0.93788334  0.38729101    -1.23300
O995        O  0.14335840  0.57087093  0.66715724    -0.85600
O996        O  0.08997727  0.56802045  0.62185722    -0.82600
C997        C  0.07795052  0.59718326  0.62061653     0.97900
O998        O  0.09898270  0.61994991  0.61099385    -0.82700
O999        O  0.16413797  0.65343185  0.59168798    -0.85300
C1000       C  0.18308867  0.66185434  0.61537388     1.02400
O1001       O  0.19196915  0.64040845  0.63506133    -0.78100
O1002       O  0.20326079  0.58193289  0.66468771    -0.78300
C1003       C  0.17343950  0.57802076  0.68057171     1.02300
O1004       O  0.19028105  0.52666910  0.63298023    -0.85600
O1005       O  0.14075125  0.52977251  0.58407232    -0.82700
C1006       C  0.12314194  0.54156725  0.56127817     0.97900
O1007       O  0.11169779  0.57102023  0.56251373    -0.82700
O1008       O  0.17706743  0.60096758  0.54891188    -0.85300
C1009       C  0.20933927  0.61248411  0.55142353     1.02400
O1010       O  0.22380603  0.61609287  0.57815111    -0.78100
O1011       O  0.23065555  0.55552460  0.60584381    -0.78300
C1012       C  0.22173737  0.52919111  0.61935373     1.02300
Cr1013     Cr  0.14247836  0.55123889  0.62533620     1.93700
Cr1014     Cr  0.13940867  0.60977504  0.58090521     1.93200
Cr1015     Cr  0.20918826  0.59752872  0.62010426     1.39100
O1016       O  0.16374488  0.58627824  0.60881637    -1.23300
O1017       O  0.40362992  0.71339546  0.37673386    -0.85600
O1018       O  0.35267491  0.71086954  0.32967321    -0.82600
C1019       C  0.32380827  0.70210525  0.31527620     0.97900
O1020       O  0.29381727  0.69546077  0.33010247    -0.82700
O1021       O  0.30486821  0.63731505  0.36041454    -0.85300
C1022       C  0.31257945  0.61669236  0.38119794     1.02400
O1023       O  0.33150858  0.62567243  0.40454887    -0.78100
O1024       O  0.39675737  0.66073040  0.38527394    -0.78300
C1025       C  0.41702252  0.68460699  0.37669649     1.02300
O1026       O  0.34905191  0.74848898  0.41434268    -0.85600
O1027       O  0.30234929  0.75210699  0.36287870    -0.82700
C1028       C  0.26969313  0.74789107  0.37379123     0.97900
O1029       O  0.26134487  0.72135729  0.38710054    -0.82700
O1030       O  0.26984376  0.66212677  0.41621117    -0.85300
C1031       C  0.28348016  0.66635185  0.44319095     1.02400
O1032       O  0.31610040  0.67718189  0.44633618    -0.78100
O1033       O  0.38174438  0.70818094  0.43372940    -0.78300
C1034       C  0.36769904  0.73646645  0.43644265     1.02300
Cr1035     Cr  0.35060516  0.72882120  0.37211892     1.93700
Cr1036     Cr  0.28576533  0.68004200  0.37433644     1.93200
Cr1037     Cr  0.35505949  0.66941863  0.41500578     1.39100
O1038       O  0.33034636  0.69257148  0.38694621    -1.23300
O1039       O  0.40566590  0.81710787  0.61854267    -0.85600
O1040       O  0.35181626  0.81839921  0.66463042    -0.82600
C1041       C  0.32179594  0.82597084  0.67849907     0.97900
O1042       O  0.29227054  0.83133537  0.66289643    -0.82700
O1043       O  0.30260662  0.89109580  0.63553303    -0.85300
C1044       C  0.31390159  0.91350234  0.61752950     1.02400
O1045       O  0.33600143  0.90665354  0.59519584    -0.78100
O1046       O  0.39899740  0.87005892  0.61411704    -0.78300
C1047       C  0.41901900  0.84576600  0.62089498     1.02300
O1048       O  0.35310032  0.78419280  0.57866212    -0.85600
O1049       O  0.30437287  0.77719672  0.62904553    -0.82700
C1050       C  0.27350293  0.77999703  0.61526373     0.97900
O1051       O  0.26547367  0.80681279  0.60244232    -0.82700
O1052       O  0.27392203  0.86891055  0.57690694    -0.85300
C1053       C  0.29101724  0.86934818  0.55070268     1.02400
O1054       O  0.32422101  0.86000115  0.54834712    -0.78100
O1055       O  0.38642100  0.82595728  0.56163136    -0.78300
C1056       C  0.37136501  0.79820828  0.55703812     1.02300
Cr1057     Cr  0.35251109  0.80171979  0.62161426     1.93700
Cr1058     Cr  0.28682638  0.84861098  0.61858374     1.93200
Cr1059     Cr  0.35980202  0.86387782  0.58221640     1.39100
O1060       O  0.33281366  0.83838782  0.60751192    -1.23300
O1061       O  0.64290100  0.71008460  0.32823877    -0.85600
O1062       O  0.59067517  0.71106446  0.37570246    -0.82600
C1063       C  0.57722322  0.68227666  0.37539289     0.97900
O1064       O  0.59753875  0.65831694  0.38286785    -0.82700
O1065       O  0.66257019  0.62288167  0.39938498    -0.85300
C1066       C  0.68205581  0.61560863  0.37552064     1.02400
O1067       O  0.69112993  0.63776517  0.35646251    -0.78100
O1068       O  0.70229988  0.69708763  0.32844478    -0.78300
C1069       C  0.67238430  0.70248961  0.31359752     1.02300
O1070       O  0.69156929  0.75182918  0.36291520    -0.85600
O1071       O  0.64324064  0.74575671  0.41412828    -0.82700
C1072       C  0.62563786  0.73224759  0.43649929     0.97900
O1073       O  0.61282049  0.70344409  0.43333689    -0.82700
O1074       O  0.67748372  0.67172640  0.44437513    -0.85300
C1075       C  0.71049363  0.66206059  0.44061439     1.02400
O1076       O  0.72470988  0.65999853  0.41338985    -0.78100
O1077       O  0.73222542  0.72149630  0.38710138    -0.78300
C1078       C  0.72346466  0.74851211  0.37500817     1.02300
Cr1079     Cr  0.64351031  0.72714223  0.37134350     1.93700
Cr1080     Cr  0.63916986  0.66583438  0.41249941     1.93200
Cr1081     Cr  0.70926498  0.67997592  0.37234542     1.39100
O1082       O  0.66411279  0.69084608  0.38536810    -1.23300
O1083       O  0.64262204  0.81792614  0.66486141    -0.85600
O1084       O  0.59113535  0.81773953  0.61767634    -0.82600
C1085       C  0.57846507  0.84661373  0.61890616     0.97900
O1086       O  0.59926633  0.87045591  0.61134093    -0.82700
O1087       O  0.66484929  0.90523318  0.59440572    -0.85300
C1088       C  0.68458991  0.91280373  0.61769938     1.02400
O1089       O  0.69428648  0.89084813  0.63663204    -0.78100
O1090       O  0.70227817  0.83075938  0.66449409    -0.78300
C1091       C  0.67209440  0.82489377  0.67940444     1.02300
O1092       O  0.69009695  0.77634049  0.62968597    -0.85600
O1093       O  0.64326729  0.78284293  0.57876740    -0.82700
C1094       C  0.62618690  0.79675320  0.55670751     0.97900
O1095       O  0.61414604  0.82570028  0.56017406    -0.82700
O1096       O  0.67959631  0.85672077  0.54906614    -0.85300
C1097       C  0.71288674  0.86570975  0.55246699     1.02400
O1098       O  0.72714670  0.86766010  0.57946260    -0.78100
O1099       O  0.73253572  0.80585868  0.60596125    -0.78300
C1100       C  0.72241638  0.77900565  0.61795552     1.02300
Cr1101     Cr  0.64334233  0.80134038  0.62164463     1.93700
Cr1102     Cr  0.64099450  0.86279111  0.58119996     1.93200
Cr1103     Cr  0.71058544  0.84787253  0.62064876     1.39100
O1104       O  0.66515004  0.83753980  0.60792911    -1.23300
O1105       O  0.85062533  0.96098842  0.16433408    -0.85600
O1106       O  0.90408071  0.96071992  0.11769288    -0.82600
C1107       C  0.91675240  0.93177015  0.11851255     0.97900
O1108       O  0.89598289  0.90799240  0.11108660    -0.82700
O1109       O  0.83043616  0.87312983  0.09480410    -0.85300
C1110       C  0.81024674  0.86591351  0.11835632     1.02400
O1111       O  0.80022514  0.88820482  0.13687174    -0.78100
O1112       O  0.79076366  0.94880157  0.16356311    -0.78300
C1113       C  0.82047955  0.95451482  0.17863603     1.02300
O1114       O  0.80398817  0.00249849  0.12823566    -0.85600
O1115       O  0.85326374  0.99555509  0.07783599    -0.82700
C1116       C  0.87088371  0.98145048  0.05594911     0.97900
O1117       O  0.88252077  0.95241264  0.05966029    -0.82700
O1118       O  0.81720776  0.92149333  0.04856290    -0.85300
C1119       C  0.78387939  0.91238225  0.05194564     1.02400
O1120       O  0.76914064  0.91036356  0.07899989    -0.78100
O1121       O  0.76325828  0.97224198  0.10389677    -0.78300
C1122       C  0.77214265  0.99908495  0.11613885     1.02300
Cr1123     Cr  0.85150092  0.97734920  0.12093788     1.93700
Cr1124     Cr  0.85492095  0.91551246  0.08095767     1.93200
Cr1125     Cr  0.78436014  0.93079306  0.11989512     1.39100
O1126       O  0.83019013  0.94101033  0.10739881    -1.23300
O1127       O  0.85591051  0.56840897  0.82773448    -0.85600
O1128       O  0.90739561  0.56773389  0.87488862    -0.82600
C1129       C  0.92013360  0.59661867  0.87330642     0.97900
O1130       O  0.89960099  0.62040218  0.88117695    -0.82700
O1131       O  0.83365412  0.65462724  0.89920478    -0.85300
C1132       C  0.81333184  0.66182668  0.87611738     1.02400
O1133       O  0.80466227  0.63983566  0.85695583    -0.78100
O1134       O  0.79615807  0.58040153  0.82866534    -0.78300
C1135       C  0.82629293  0.57541582  0.81345213     1.02300
O1136       O  0.80854442  0.52564641  0.86250990    -0.85600
O1137       O  0.85567138  0.53207418  0.91357170    -0.82700
C1138       C  0.87308797  0.54574583  0.93561833     0.97900
O1139       O  0.88537680  0.57475037  0.93217028    -0.82700
O1140       O  0.82015251  0.60532267  0.94433981    -0.85300
C1141       C  0.78687685  0.61424487  0.94116003     1.02400
O1142       O  0.77233358  0.61593790  0.91424293    -0.78100
O1143       O  0.76699101  0.55455197  0.88761441    -0.78300
C1144       C  0.77660090  0.52804485  0.87496511     1.02300
Cr1145     Cr  0.85538431  0.55101076  0.87080382     1.93700
Cr1146     Cr  0.85822474  0.61207373  0.91174749     1.93200
Cr1147     Cr  0.78836230  0.59681845  0.87280084     1.39100
O1148       O  0.83382091  0.58684092  0.88505592    -1.23300
O1149       O  0.08976106  0.96199486  0.12094579    -0.85600
O1150       O  0.14282559  0.96264009  0.16755151    -0.82600
C1151       C  0.17281126  0.95551051  0.18129380     0.97900
O1152       O  0.20231981  0.94920201  0.16570262    -0.82700
O1153       O  0.19298030  0.88924218  0.13882039    -0.85300
C1154       C  0.18290174  0.86698920  0.12046689     1.02400
O1155       O  0.16291637  0.87424683  0.09712906    -0.78100
O1156       O  0.09751097  0.90926434  0.11427599    -0.78300
C1157       C  0.07676405  0.93305513  0.12165127     1.02300
O1158       O  0.14145212  0.99698661  0.08072947    -0.85600
O1159       O  0.19006534  0.00368400  0.13112877    -0.82700
C1160       C  0.22217301  0.00015700  0.11912416     0.97900
O1161       O  0.23076335  0.97355588  0.10621305    -0.82700
O1162       O  0.22455317  0.91171405  0.08057218    -0.85300
C1163       C  0.20969007  0.91335252  0.05377825     1.02400
O1164       O  0.17666186  0.92296497  0.05093670    -0.78100
O1165       O  0.11186782  0.95392680  0.06282985    -0.78300
C1166       C  0.12418336  0.98283043  0.05887151     1.02300
Cr1167     Cr  0.14245294  0.97868729  0.12393033     1.93700
Cr1168     Cr  0.20917794  0.93188215  0.12188384     1.93200
Cr1169     Cr  0.13884311  0.91685472  0.08375819     1.39100
O1170       O  0.16354324  0.94225345  0.11007234    -1.23300
O1171       O  0.09150361  0.56797158  0.87576223    -0.85600
O1172       O  0.14513604  0.56936086  0.82966596    -0.82600
C1173       C  0.17517317  0.57712179  0.81578615     0.97900
O1174       O  0.20470519  0.58229867  0.83119655    -0.82700
O1175       O  0.19381442  0.64164131  0.85907918    -0.85300
C1176       C  0.18314911  0.66338755  0.87789332     1.02400
O1177       O  0.16331384  0.65536747  0.90139568    -0.78100
O1178       O  0.09928664  0.62060227  0.88275631    -0.78300
C1179       C  0.07894852  0.59693980  0.87447825     1.02300
O1180       O  0.14236815  0.53254450  0.91526065    -0.85600
O1181       O  0.19185114  0.52732066  0.86483344    -0.82700
C1182       C  0.22345220  0.53064813  0.87734260     0.97900
O1183       O  0.23194005  0.55725736  0.89023692    -0.82700
O1184       O  0.22424137  0.61809381  0.91673770    -0.85300
C1185       C  0.20918792  0.61528517  0.94358908     1.02400
O1186       O  0.17597012  0.60572792  0.94645800    -0.78100
O1187       O  0.11145585  0.57458446  0.93364332    -0.78300
C1188       C  0.12426614  0.54589774  0.93731759     1.02300
Cr1189     Cr  0.14407010  0.55173523  0.87252695     1.93700
Cr1190     Cr  0.21029910  0.59890336  0.87521626     1.93200
Cr1191     Cr  0.13909742  0.61240617  0.91370223     1.39100
O1192       O  0.16464766  0.58784186  0.88705977    -1.23300
O1193       O  0.35218082  0.70967944  0.16549880    -0.85600
O1194       O  0.40406855  0.71092270  0.11796086    -0.82600
C1195       C  0.41640626  0.68183918  0.11816715     0.97900
O1196       O  0.39547916  0.65842434  0.11039119    -0.82700
O1197       O  0.33068451  0.62424433  0.09440653    -0.85300
C1198       C  0.31216068  0.61619352  0.11860738     1.02400
O1199       O  0.30188397  0.63795744  0.13760245    -0.78100
O1200       O  0.29238875  0.69764695  0.16534355    -0.78300
C1201       C  0.32249698  0.70241360  0.18007800     1.02300
O1202       O  0.30411708  0.75231991  0.13170707    -0.85600
O1203       O  0.35182743  0.74706020  0.08029781    -0.82700
C1204       C  0.36870721  0.73356070  0.05770239     0.97900
O1205       O  0.38108194  0.70467684  0.06064755    -0.82700
O1206       O  0.31571224  0.67400133  0.05000362    -0.85300
C1207       C  0.28306529  0.66330849  0.05368270     1.02400
O1208       O  0.26886877  0.66083366  0.08087202    -0.78100
O1209       O  0.26302723  0.72261755  0.10705848    -0.78300
C1210       C  0.27226205  0.74937089  0.11945770     1.02300
Cr1211     Cr  0.35161362  0.72752944  0.12279526     1.93700
Cr1212     Cr  0.35421184  0.66702556  0.08120845     1.93200
Cr1213     Cr  0.28484448  0.68072338  0.12173853     1.39100
O1214       O  0.33012401  0.69157971  0.10869456    -1.23300
O1215       O  0.35280966  0.81977111  0.82880423    -0.85600
O1216       O  0.40452319  0.81920788  0.87596951    -0.82600
C1217       C  0.41738772  0.84815994  0.87495659     0.97900
O1218       O  0.39682020  0.87188400  0.88277915    -0.82700
O1219       O  0.33163876  0.90650739  0.89957289    -0.85300
C1220       C  0.31268638  0.91397231  0.87575038     1.02400
O1221       O  0.30269510  0.89188974  0.85717861    -0.78100
O1222       O  0.29319119  0.83226552  0.82964498    -0.78300
C1223       C  0.32326185  0.82691512  0.81447683     1.02300
O1224       O  0.30452398  0.77780473  0.86386515    -0.85600
O1225       O  0.35172887  0.78406851  0.91488521    -0.82700
C1226       C  0.36876302  0.79779838  0.93708808     0.97900
O1227       O  0.38159079  0.82656805  0.93356661    -0.82700
O1228       O  0.31659493  0.85745303  0.94507308    -0.85300
C1229       C  0.28351457  0.86684423  0.94181209     1.02400
O1230       O  0.26938850  0.86914170  0.91477539    -0.78100
O1231       O  0.26344602  0.80756353  0.88873149    -0.78300
C1232       C  0.27248079  0.78090268  0.87611623     1.02300
Cr1233     Cr  0.35198221  0.80273548  0.87200096     1.93700
Cr1234     Cr  0.35511143  0.86389942  0.91283957     1.93200
Cr1235     Cr  0.28552846  0.84933283  0.87354223     1.39100
O1236       O  0.33077916  0.83886800  0.88599603    -1.23300
O1237       O  0.58755444  0.70828736  0.11668098    -0.85600
O1238       O  0.63934243  0.70827846  0.16347389    -0.82600
C1239       C  0.66903125  0.70139354  0.17766033     0.97900
O1240       O  0.69905887  0.69633317  0.16237309    -0.82700
O1241       O  0.69049138  0.63698103  0.13378302    -0.85300
C1242       C  0.68102719  0.61510500  0.11474129     1.02400
O1243       O  0.66215383  0.62280044  0.09099038    -0.78100
O1244       O  0.59637497  0.65585821  0.10879673    -0.78300
C1245       C  0.57531143  0.67913492  0.11688890     1.02300
O1246       O  0.63850956  0.74507121  0.07786381    -0.85600
O1247       O  0.68633290  0.75152761  0.12856728    -0.82700
C1248       C  0.71877294  0.74899992  0.11694197     0.97900
O1249       O  0.72847066  0.72262563  0.10404437    -0.82700
O1250       O  0.72314933  0.66143305  0.07669413    -0.85300
C1251       C  0.70898332  0.66379227  0.04967146     1.02400
O1252       O  0.67581453  0.67297652  0.04642765    -0.78100
O1253       O  0.60962318  0.70212646  0.05900348    -0.78300
C1254       C  0.62102860  0.73135510  0.05590386     1.02300
Cr1255     Cr  0.63948529  0.72578486  0.12046864     1.93700
Cr1256     Cr  0.70689598  0.68019745  0.11824496     1.93200
Cr1257     Cr  0.63759298  0.66519113  0.07873008     1.39100
O1258       O  0.66146488  0.69025134  0.10590063    -1.23300
O1259       O  0.58836082  0.81885219  0.87528972    -0.85600
O1260       O  0.64209081  0.81789369  0.82926804    -0.82600
C1261       C  0.67253336  0.82384812  0.81528033     0.97900
O1262       O  0.70228095  0.82820603  0.83076948    -0.82700
O1263       O  0.69521992  0.88844818  0.85820368    -0.85300
C1264       C  0.68546454  0.91079380  0.87674243     1.02400
O1265       O  0.66452281  0.90393000  0.89992021    -0.78100
O1266       O  0.59819692  0.87127594  0.88221650    -0.78300
C1267       C  0.57670846  0.84811744  0.87454163     1.02300
O1268       O  0.63749412  0.78221502  0.91476978    -0.85600
O1269       O  0.68675645  0.77436375  0.86497711    -0.82700
C1270       C  0.71832057  0.77639854  0.87782193     0.97900
O1271       O  0.72790101  0.80277844  0.89062644    -0.82700
O1272       O  0.72395339  0.86465948  0.91620833    -0.85300
C1273       C  0.70840270  0.86329521  0.94299826     1.02400
O1274       O  0.67484477  0.85473547  0.94584459    -0.78100
O1275       O  0.60896481  0.82563560  0.93316424    -0.78300
C1276       C  0.61995690  0.79636806  0.93660526     1.02300
Cr1277     Cr  0.64020645  0.80083985  0.87219070     1.93700
Cr1278     Cr  0.70889310  0.84519021  0.87482599     1.93200
Cr1279     Cr  0.63820556  0.86214592  0.91289094     1.39100
O1280       O  0.66252798  0.83631624  0.88650232    -1.23300
C1281       C  0.61508616  0.74846018  0.02586785    -0.05700
C1282       C  0.61339918  0.72986200  0.99826651    -0.33100
C1283       C  0.61332087  0.74506512  0.96893986     0.36100
C1284       C  0.61391782  0.77949807  0.96683140    -0.06100
C1285       C  0.61271560  0.79809622  0.99445877    -0.33000
C1286       C  0.61399522  0.78286039  0.02380931     0.36000
H1287       H  0.61395545  0.70334631  0.99933080     0.16400
O1288       O  0.61395684  0.72599300  0.94255212    -0.60500
H1289       H  0.61292228  0.82462142  0.99334396     0.16400
O1290       O  0.61420715  0.80179889  0.05027703    -0.60600
H1291       H  0.64049214  0.80895928  0.05269006     0.43400
H1292       H  0.58764540  0.72486545  0.93562116     0.43300
C1293       C  0.45767068  0.85306459  0.86778940    -0.05700
C1294       C  0.47725339  0.87960549  0.88078222    -0.33100
C1295       C  0.51650691  0.88003614  0.88089557     0.36100
C1296       C  0.53665846  0.85370978  0.86771761    -0.06100
C1297       C  0.51693734  0.82917175  0.85179387    -0.33000
C1298       C  0.47797357  0.82877009  0.85161087     0.36000
H1299       H  0.46225574  0.89881883  0.89294578     0.16400
O1300       O  0.53463660  0.90505525  0.89587498    -0.60500
H1301       H  0.53176750  0.80908542  0.84081784     0.16400
O1302       O  0.46007103  0.80330793  0.83710377    -0.60600
H1303       H  0.45456169  0.81146248  0.81578821     0.43400
H1304       H  0.53552603  0.89831704  0.91817009     0.43300
C1305       C  0.45644910  0.67620468  0.12431837    -0.05700
C1306       C  0.47524828  0.65015489  0.10960532    -0.33100
C1307       C  0.51439660  0.64887250  0.10922294     0.36100
C1308       C  0.53516122  0.67392658  0.12372112    -0.06100
C1309       C  0.51614419  0.69794032  0.14105300    -0.33000
C1310       C  0.47725749  0.69920413  0.14147120     0.36000
H1311       H  0.45976862  0.63209606  0.09641219     0.16400
O1312       O  0.53184429  0.62503700  0.09196151    -0.60500
H1313       H  0.53154494  0.71705257  0.15292823     0.16400
O1314       O  0.46000526  0.72428474  0.15719826    -0.60600
H1315       H  0.45263070  0.71486962  0.17777413     0.43400
H1316       H  0.53524769  0.60648444  0.10667268     0.43300
C1317       C  0.37268042  0.75048697  0.02717999    -0.05700
C1318       C  0.37226625  0.73167928  0.99966982    -0.33100
C1319       C  0.37191616  0.74662786  0.97017886     0.36100
C1320       C  0.37270060  0.78103314  0.96766852    -0.06100
C1321       C  0.37458990  0.79985907  0.99517011    -0.33000
C1322       C  0.37402830  0.78488716  0.02474068     0.36000
H1323       H  0.37079210  0.70518618  0.00100322     0.16400
O1324       O  0.37007123  0.72732142  0.94401944    -0.60500
H1325       H  0.37502428  0.82637660  0.99383072     0.16400
O1326       O  0.37519902  0.80406648  0.05103590    -0.60600
H1327       H  0.34921568  0.81168736  0.05438191     0.43400
H1328       H  0.39640194  0.72326491  0.93787121     0.43300
C1329       C  0.25078804  0.50365050  0.87518006    -0.05700
C1330       C  0.25049504  0.98305089  0.84886625    -0.33100
C1331       C  0.27336187  0.95539143  0.84723404     0.36100
C1332       C  0.29685498  0.94742277  0.87249390    -0.06100
C1333       C  0.29905740  0.96937223  0.89779956    -0.33000
C1334       C  0.27687988  0.49758699  0.89889731     0.36000
H1335       H  0.23183484  0.98811011  0.82965298     0.16400
O1336       O  0.27163007  0.93583865  0.82119525    -0.60500
H1337       H  0.31665501  0.96389196  0.91758745     0.16400
O1338       O  0.27838716  0.51724995  0.92483148    -0.60600
H1339       H  0.29915575  0.53280679  0.92058082     0.43400
H1340       H  0.24825722  0.92294580  0.82365639     0.43300
C1341       C  0.19897478  0.69706926  0.87484608    -0.05700
C1342       C  0.22164836  0.70467052  0.84872474    -0.33100
C1343       C  0.24465181  0.73245428  0.84847516     0.36100
C1344       C  0.24539557  0.75345329  0.87459504    -0.06100
C1345       C  0.22059536  0.74751461  0.89958843    -0.33000
C1346       C  0.19758001  0.71960693  0.89993779     0.36000
H1347       H  0.22303207  0.68815848  0.82893511     0.16400
O1348       O  0.26703728  0.73836133  0.82282990    -0.60500
H1349       H  0.22037365  0.76368089  0.91966344     0.16400
O1350       O  0.17605063  0.71347208  0.92601028    -0.60600
H1351       H  0.15217325  0.72494774  0.92218305     0.43400
H1352       H  0.25310186  0.75434812  0.80995961     0.43300
C1353       C  0.22926552  0.62569357  0.97186346    -0.05700
C1354       C  0.21129722  0.62340292  0.00123903    -0.33100
C1355       C  0.22787762  0.63605152  0.02808243     0.36100
C1356       C  0.26310217  0.65137107  0.02588063    -0.06100
C1357       C  0.28123388  0.65313557  0.99657429    -0.33000
C1358       C  0.26490355  0.64020893  0.96987673     0.36000
H1359       H  0.18398674  0.61209906  0.00349304     0.16400
O1360       O  0.20963724  0.63270075  0.05628525    -0.60500
H1361       H  0.30857484  0.66433872  0.99418602     0.16400
O1362       O  0.28387341  0.64260332  0.94192473    -0.60600
H1363       H  0.29910577  0.62241222  0.94060561     0.43400
H1364       H  0.19272370  0.65183277  0.05766648     0.43300
C1365       C  0.26269209  0.87733398  0.97004348    -0.05700
C1366       C  0.27455932  0.86648731  0.99958645    -0.33100
C1367       C  0.25816047  0.87840327  0.02707988     0.36100
C1368       C  0.22959341  0.90192545  0.02542504    -0.06100
C1369       C  0.21738218  0.91244225  0.99587438    -0.33000
C1370       C  0.23367939  0.90044187  0.96837580     0.36000
H1371       H  0.29677843  0.84865859  0.00145024     0.16400
O1372       O  0.26994353  0.86649774  0.05534811    -0.60500
H1373       H  0.19517049  0.93026491  0.99401118     0.16400
O1374       O  0.22149057  0.91202036  0.94010813    -0.60600
H1375       H  0.23650436  0.93203757  0.93594468     0.43400
H1376       H  0.25597691  0.84573747  0.05853956     0.43300
C1377       C  0.11974416  0.99902043  0.02796636    -0.05700
C1378       C  0.12305319  0.98004147  0.00067302    -0.33100
C1379       C  0.12339524  0.49470659  0.97098813     0.36100
C1380       C  0.11940126  0.52893762  0.96798712    -0.06100
C1381       C  0.11400296  0.54767479  0.99529712    -0.33000
C1382       C  0.11459165  0.53305456  0.02507945     0.36000
H1383       H  0.12681251  0.95377007  0.00241206     0.16400
O1384       O  0.12844844  0.97526335  0.94505759    -0.60500
H1385       H  0.11097243  0.57402982  0.99370864     0.16400
O1386       O  0.11011976  0.55225688  0.05113334    -0.60600
H1387       H  0.13497010  0.56226267  0.05475626     0.43400
H1388       H  0.15565311  0.97099683  0.94370908     0.43300
C1389       C  0.19959422  0.83365306  0.12340381    -0.05700
C1390       C  0.19809145  0.81193533  0.09786533    -0.33100
C1391       C  0.22058492  0.78382645  0.09668161     0.36100
C1392       C  0.24554241  0.77707327  0.12110120    -0.06100
C1393       C  0.24554152  0.79760603  0.14741146    -0.33000
C1394       C  0.22280245  0.82547868  0.14883700     0.36000
H1395       H  0.18100205  0.81765166  0.07782602     0.16400
O1396       O  0.22006467  0.76459130  0.07042602    -0.60500
H1397       H  0.26376003  0.79231485  0.16686467     0.16400
O1398       O  0.22406877  0.84484330  0.17502332    -0.60600
H1399       H  0.24750500  0.85771641  0.17295896     0.43400
H1400       H  0.19882722  0.74927913  0.07369546     0.43300
C1401       C  0.24969767  0.52675323  0.12135207    -0.05700
C1402       C  0.27578422  0.53197644  0.09716253    -0.33100
C1403       C  0.29941667  0.55943277  0.09739215     0.36100
C1404       C  0.29700312  0.58238498  0.12208687    -0.06100
C1405       C  0.27356745  0.57511763  0.14779424    -0.33000
C1406       C  0.25015113  0.54762877  0.14758160     0.36000
H1407       H  0.27690697  0.01563215  0.07733409     0.16400
O1408       O  0.32266525  0.56472029  0.07219561    -0.60500
H1409       H  0.27170548  0.59178530  0.16744107     0.16400
O1410       O  0.22702089  0.54195776  0.17280644    -0.60600
H1411       H  0.24065364  0.52620429  0.18616698     0.43400
H1412       H  0.34624750  0.55350409  0.07755239     0.43300
C1413       C  0.96032340  0.60104331  0.86555238    -0.05700
C1414       C  0.97968653  0.62927755  0.87508099    -0.33100
C1415       C  0.01891463  0.62985165  0.87530209     0.36100
C1416       C  0.03915576  0.60169438  0.86635232    -0.06100
C1417       C  0.01973955  0.57525322  0.85323878    -0.33000
C1418       C  0.98088887  0.57478189  0.85262689     0.36000
H1419       H  0.96454391  0.65002598  0.88446883     0.16400
O1420       O  0.03682246  0.65689645  0.88688864    -0.60500
H1421       H  0.03462781  0.55378136  0.84510387     0.16400
O1422       O  0.96342009  0.54726864  0.84147642    -0.60600
H1423       H  0.95651940  0.55274882  0.81967318     0.43400
H1424       H  0.04342729  0.67029632  0.86823133     0.43300
C1425       C  0.76604703  0.62561882  0.96897458    -0.05700
C1426       C  0.73808176  0.64923903  0.96534680    -0.33100
C1427       C  0.72006510  0.66274226  0.99141612     0.36100
C1428       C  0.73002776  0.65271979  0.02183043    -0.06100
C1429       C  0.75808695  0.62917878  0.02544065    -0.33000
C1430       C  0.77609458  0.61568568  0.99938009     0.36000
H1431       H  0.73067066  0.65787991  0.94223193     0.16400
O1432       O  0.69354505  0.68640669  0.98691438    -0.60500
H1433       H  0.76552906  0.62052352  0.04854041     0.16400
O1434       O  0.80264507  0.59205271  0.00388651    -0.60600
H1435       H  0.82521764  0.60407822  0.01074311     0.43400
H1436       H  0.67121084  0.67450230  0.97938096     0.43300
C1437       C  0.74469105  0.74840650  0.87625155    -0.05700
C1438       C  0.77287540  0.74496505  0.89866821    -0.33100
C1439       C  0.79715737  0.71798082  0.89805823     0.36100
C1440       C  0.79419326  0.69416313  0.87420847    -0.06100
C1441       C  0.76717767  0.69876128  0.85093032    -0.33000
C1442       C  0.74255080  0.72523168  0.85191575     0.36000
H1443       H  0.77533630  0.76267299  0.91739010     0.16400
O1444       O  0.82294070  0.71480256  0.92137080    -0.60500
H1445       H  0.76388978  0.68094809  0.83239858     0.16400
O1446       O  0.71611512  0.72784844  0.82904972    -0.60600
H1447       H  0.72729828  0.74260749  0.81301562     0.43400
H1448       H  0.80916880  0.70465947  0.93918055     0.43300
C1449       C  0.75038283  0.49989893  0.87367741    -0.05700
C1450       C  0.72372145  0.49517009  0.89754138    -0.33100
C1451       C  0.70043273  0.96740334  0.89781845     0.36100
C1452       C  0.70328755  0.94372828  0.87378176    -0.06100
C1453       C  0.72860214  0.94954690  0.84899194    -0.33000
C1454       C  0.75212388  0.97700085  0.84887929     0.36000
H1455       H  0.72184932  0.51240920  0.91672983     0.16400
O1456       O  0.67696975  0.96269232  0.92297219    -0.60500
H1457       H  0.73149886  0.93198097  0.83016242     0.16400
O1458       O  0.77673128  0.98129315  0.82438711    -0.60600
H1459       H  0.79835233  0.96714213  0.82930020     0.43400
H1460       H  0.65308608  0.47242601  0.91683626     0.43300
C1461       C  0.95700632  0.92707235  0.12547291    -0.05700
C1462       C  0.97594276  0.95141945  0.14233796    -0.33100
C1463       C  0.01499616  0.95211363  0.14346420     0.36100
C1464       C  0.03611115  0.92816928  0.12751804    -0.06100
C1465       C  0.01715267  0.90205277  0.11317614    -0.33000
C1466       C  0.97794204  0.90131587  0.11214394     0.36000
H1467       H  0.96046571  0.97099412  0.15352998     0.16400
O1468       O  0.03230036  0.97675713  0.15969233    -0.60500
H1469       H  0.03271290  0.88331883  0.10082155     0.16400
O1470       O  0.96071483  0.87699198  0.09551122    -0.60600
H1471       H  0.95735886  0.85866310  0.11056786     0.43400
H1472       H  0.03042573  0.99649072  0.14620386     0.43300
C1473       C  0.87667443  0.99801863  0.02535289    -0.05700
C1474       C  0.87621533  0.97920014  0.99783864    -0.33100
C1475       C  0.87602869  0.49428348  0.96855605     0.36100
C1476       C  0.87789513  0.52869073  0.96602905    -0.06100
C1477       C  0.88133332  0.54733806  0.99351375    -0.33000
C1478       C  0.88002415  0.53239718  0.02309562     0.36000
H1479       H  0.87413149  0.95274767  0.99922588     0.16400
O1480       O  0.87329054  0.47503673  0.94241133    -0.60500
H1481       H  0.88327954  0.57379788  0.99218570     0.16400
O1482       O  0.88238695  0.55149310  0.04937431    -0.60600
H1483       H  0.85688964  0.56024225  0.05278875     0.43400
H1484       H  0.89988849  0.97145260  0.93514765     0.43300
C1485       C  0.76320200  0.90146894  0.02411290    -0.05700
C1486       C  0.73420706  0.87852042  0.02759307    -0.33100
C1487       C  0.71689203  0.86507049  0.00140329     0.36100
C1488       C  0.72839614  0.87461575  0.97101220    -0.06100
C1489       C  0.75710908  0.89781050  0.96756230    -0.33000
C1490       C  0.77421762  0.91142806  0.99372580     0.36000
H1491       H  0.72554553  0.87026711  0.05067581     0.16400
O1492       O  0.68883115  0.84254588  0.00585588    -0.60500
H1493       H  0.76569462  0.90615335  0.94448715     0.16400
O1494       O  0.80160268  0.93456309  0.98923252    -0.60600
H1495       H  0.78864904  0.95596715  0.99057608     0.43400
H1496       H  0.70126811  0.82089977  0.00526701     0.43300
C1497       C  0.74468808  0.52640201  0.11786430    -0.05700
C1498       C  0.71916864  0.53115141  0.09357491    -0.33100
C1499       C  0.69586522  0.55872687  0.09321103     0.36100
C1500       C  0.69725862  0.58176650  0.11786502    -0.06100
C1501       C  0.72040851  0.57515007  0.14348390    -0.33000
C1502       C  0.74421659  0.54808431  0.14345395     0.36000
H1503       H  0.71922602  0.01435717  0.07351081     0.16400
O1504       O  0.67308669  0.56350812  0.06800559    -0.60500
H1505       H  0.72169957  0.59200032  0.16299900     0.16400
O1506       O  0.76682275  0.54295768  0.16871207    -0.60600
H1507       H  0.78835543  0.55798528  0.16557811     0.43400
H1508       H  0.68927778  0.57357497  0.05163718     0.43300
C1509       C  0.74556236  0.77676796  0.11963453    -0.05700
C1510       C  0.77492877  0.78048770  0.09788800    -0.33100
C1511       C  0.79834032  0.80819444  0.09848761     0.36100
C1512       C  0.79302675  0.83267609  0.12146964    -0.06100
C1513       C  0.76551896  0.82741705  0.14469700    -0.33000
C1514       C  0.74201140  0.79996455  0.14391378     0.36000
H1515       H  0.77879775  0.76258077  0.07947853     0.16400
O1516       O  0.82550047  0.81149843  0.07585135    -0.60500
H1517       H  0.76082607  0.84548475  0.16283175     0.16400
O1518       O  0.71506699  0.79652066  0.16672819    -0.60600
H1519       H  0.72662177  0.78274848  0.18313026     0.43400
H1520       H  0.81243508  0.81989614  0.05713985     0.43300
C1521       C  0.67183898  0.82517032  0.71417609    -0.05700
C1522       C  0.70542595  0.82994837  0.73034207    -0.33100
C1523       C  0.70626382  0.82980888  0.76310155     0.36100
C1524       C  0.67309922  0.82466508  0.78052496    -0.06100
C1525       C  0.63950665  0.82007739  0.76432930    -0.33000
C1526       C  0.63860593  0.82039763  0.73165791     0.36000
H1527       H  0.73137891  0.83363557  0.71758681     0.16400
O1528       O  0.73984580  0.83408780  0.77767934    -0.60500
H1529       H  0.61352393  0.81615662  0.77699203     0.16400
O1530       O  0.60501533  0.81553474  0.71721817    -0.60600
H1531       H  0.59392450  0.83765597  0.71522988     0.43400
H1532       H  0.74269468  0.85813302  0.78003872     0.43300
C1533       C  0.66929958  0.70046055  0.21244677    -0.05700
C1534       C  0.70329693  0.69647410  0.22813613    -0.33100
C1535       C  0.70480556  0.69650848  0.26086972     0.36100
C1536       C  0.67192476  0.70096019  0.27881812    -0.06100
C1537       C  0.63782050  0.70423262  0.26312207    -0.33000
C1538       C  0.63627005  0.70402416  0.23041466     0.36000
H1539       H  0.72909143  0.69358417  0.21501902     0.16400
O1540       O  0.73881089  0.69298358  0.27490364    -0.60500
H1541       H  0.61200450  0.70711694  0.27621788     0.16400
O1542       O  0.60213802  0.70685107  0.21640966    -0.60600
H1543       H  0.59723250  0.73072618  0.21538763     0.43400
H1544       H  0.74243271  0.66899222  0.27693133     0.43300
C1545       C  0.62143879  0.78008362  0.52624432    -0.05700
C1546       C  0.62336051  0.79877746  0.49861126    -0.33100
C1547       C  0.62373928  0.78372195  0.46920142     0.36100
C1548       C  0.62110030  0.74934542  0.46690606    -0.06100
C1549       C  0.61703989  0.73077660  0.49454614    -0.33000
C1550       C  0.61780394  0.74581598  0.52401397     0.36000
H1551       H  0.62619075  0.82518415  0.49980917     0.16400
O1552       O  0.62769004  0.80285400  0.44294136    -0.60500
H1553       H  0.61493008  0.70431439  0.49342895     0.16400
O1554       O  0.61459749  0.72684435  0.55045040    -0.60600
H1555       H  0.63994306  0.71798930  0.55400887     0.43400
H1556       H  0.60188056  0.80778083  0.43630515     0.43300
C1557       C  0.32148246  0.82747000  0.71328287    -0.05700
C1558       C  0.35551928  0.82551145  0.72931834    -0.33100
C1559       C  0.35665533  0.82585203  0.76200747     0.36100
C1560       C  0.32324580  0.82787590  0.77968332    -0.06100
C1561       C  0.28924999  0.83047559  0.76368567    -0.33000
C1562       C  0.28816547  0.83042479  0.73089939     0.36000
H1563       H  0.38165785  0.82363583  0.71649430     0.16400
O1564       O  0.39069345  0.82377902  0.77628019    -0.60500
H1565       H  0.26316661  0.83214156  0.77659956     0.16400
O1566       O  0.25421740  0.83219245  0.71647968    -0.60600
H1567       H  0.24855524  0.85592513  0.71517181     0.43400
H1568       H  0.39899322  0.84678337  0.77910614     0.43300
C1569       C  0.45926436  0.84989734  0.62783217    -0.05700
C1570       C  0.47867864  0.87797194  0.61742803    -0.33100
C1571       C  0.51790254  0.87861038  0.61657197     0.36100
C1572       C  0.53821166  0.85093730  0.62640675    -0.06100
C1573       C  0.51864455  0.82449422  0.63998493    -0.33000
C1574       C  0.47971815  0.82384907  0.64086812     0.36000
H1575       H  0.46356774  0.89854508  0.60780176     0.16400
O1576       O  0.53584467  0.90552072  0.60428639    -0.60500
H1577       H  0.53354330  0.80327493  0.64854587     0.16400
O1578       O  0.46205784  0.79660467  0.65280350    -0.60600
H1579       H  0.45426421  0.80276593  0.67432963     0.43400
H1580       H  0.53647281  0.90190043  0.58134616     0.43300
C1581       C  0.32439891  0.70077903  0.28071720    -0.05700
C1582       C  0.29154851  0.69263440  0.26482237    -0.33100
C1583       C  0.29059215  0.69235157  0.23218664     0.36100
C1584       C  0.32279481  0.70081265  0.21465399    -0.06100
C1585       C  0.35589205  0.70823789  0.23055574    -0.33000
C1586       C  0.35699230  0.70808695  0.26317930     0.36000
H1587       H  0.26621578  0.68663665  0.27767632     0.16400
O1588       O  0.25775742  0.68431025  0.21782847    -0.60500
H1589       H  0.38116274  0.71449240  0.21771669     0.16400
O1590       O  0.38995590  0.71583746  0.27750333    -0.60600
H1591       H  0.40330496  0.69472978  0.27973766     0.43400
H1592       H  0.25782556  0.66005394  0.21644913     0.43300
C1593       C  0.45750098  0.68006376  0.36978111    -0.05700
C1594       C  0.47652031  0.65239459  0.38108372    -0.33100
C1595       C  0.51576824  0.65119277  0.38064504     0.36100
C1596       C  0.53664052  0.67815731  0.36915438    -0.06100
C1597       C  0.51743448  0.70415367  0.35501849    -0.33000
C1598       C  0.47845875  0.70516937  0.35505082     0.36000
H1599       H  0.46110896  0.63250213  0.39205017     0.16400
O1600       O  0.53320570  0.62480782  0.39388997    -0.60500
H1601       H  0.53271144  0.72474160  0.34513877     0.16400
O1602       O  0.46127695  0.73185696  0.34207611    -0.60600
H1603       H  0.45513765  0.72514969  0.32044297     0.43400
H1604       H  0.53724434  0.60920632  0.37643847     0.43300
C1605       C  0.37071721  0.75429056  0.46620053    -0.05700
C1606       C  0.33807948  0.76739935  0.47929086    -0.33100
C1607       C  0.33841173  0.78168222  0.50892628     0.36100
C1608       C  0.37190762  0.78363205  0.52568784    -0.06100
C1609       C  0.40498178  0.77155146  0.51232476    -0.33000
C1610       C  0.40438747  0.75628294  0.48289000     0.36000
H1611       H  0.31186924  0.76552714  0.46695358     0.16400
O1612       O  0.30567273  0.79311198  0.52172514    -0.60500
H1613       H  0.43094210  0.77319937  0.52501899     0.16400
O1614       O  0.43682843  0.74408688  0.47033158    -0.60600
H1615       H  0.43972398  0.72208537  0.47989023     0.43400
H1616       H  0.29839200  0.81190528  0.50850943     0.43300
C1617       C  0.17403218  0.58022279  0.71512059    -0.05700
C1618       C  0.20822742  0.57972051  0.73092380    -0.33100
C1619       C  0.20928089  0.57943803  0.76366576     0.36100
C1620       C  0.17569573  0.57930992  0.78121673    -0.06100
C1621       C  0.14163594  0.58094445  0.76536028    -0.33000
C1622       C  0.14057947  0.58171078  0.73276801     0.36000
H1623       H  0.23430198  0.57876736  0.71791467     0.16400
O1624       O  0.24324044  0.57782681  0.77810151    -0.60500
H1625       H  0.11546742  0.58159788  0.77826483     0.16400
O1626       O  0.10650717  0.58350015  0.71851711    -0.60600
H1627       H  0.10203615  0.60722321  0.71525284     0.43400
H1628       H  0.25149580  0.60092292  0.78027927     0.43300
C1629       C  0.29633994  0.94644809  0.62012643    -0.05700
C1630       C  0.27174021  0.95237702  0.64533066    -0.33100
C1631       C  0.24780868  0.97934131  0.64538398     0.36100
C1632       C  0.24857362  0.50163223  0.62041139    -0.06100
C1633       C  0.27458364  0.49708296  0.59598735    -0.33000
C1634       C  0.29789627  0.96953130  0.59537424     0.36000
H1635       H  0.26971692  0.93518549  0.66463525     0.16400
O1636       O  0.22352608  0.98328611  0.67008846    -0.60500
H1637       H  0.27548320  0.51404298  0.57644161     0.16400
O1638       O  0.32094300  0.96480978  0.56997168    -0.60600
H1639       H  0.30509529  0.45404265  0.55416023     0.43400
H1640       H  0.23702287  0.99728087  0.68521864     0.43300
C1641       C  0.24652726  0.75213748  0.61602949    -0.05700
C1642       C  0.24589009  0.73139020  0.64225324    -0.33100
C1643       C  0.22288981  0.70361595  0.64347056     0.36100
C1644       C  0.20021145  0.69526887  0.61771403    -0.06100
C1645       C  0.19958972  0.71691027  0.59194842    -0.33000
C1646       C  0.22223185  0.74523852  0.59110133     0.36000
H1647       H  0.26380218  0.73650061  0.66195315     0.16400
O1648       O  0.22450315  0.68389120  0.66945559    -0.60500
H1649       H  0.18294880  0.71107267  0.57167242     0.16400
O1650       O  0.22249520  0.76454648  0.56479577    -0.60600
H1651       H  0.20107976  0.77961630  0.56751849     0.43400
H1652       H  0.20400085  0.69153287  0.68335453     0.43300
C1653       C  0.26276126  0.65524956  0.47115582    -0.05700
C1654       C  0.23049850  0.63612230  0.46748244    -0.33100
C1655       C  0.21354044  0.62091637  0.49316665     0.36100
C1656       C  0.22851120  0.62520598  0.52335169    -0.06100
C1657       C  0.26017359  0.64501479  0.52707621    -0.33000
C1658       C  0.27710123  0.66018896  0.50143704     0.36000
H1659       H  0.21904850  0.63186140  0.44446649     0.16400
O1660       O  0.18225399  0.60215662  0.48837978    -0.60500
H1661       H  0.27164044  0.64933229  0.55007393     0.16400
O1662       O  0.30802782  0.67934629  0.50635540    -0.60600
H1663       H  0.29837533  0.70197436  0.50858564     0.43400
H1664       H  0.19162219  0.57964135  0.48469376     0.43300
C1665       C  0.17811839  0.95289489  0.28216027    -0.05700
C1666       C  0.15249462  0.97354681  0.26713915    -0.33100
C1667       C  0.15008350  0.97443924  0.23441880     0.36100
C1668       C  0.17406167  0.95495058  0.21594949    -0.06100
C1669       C  0.19998444  0.93467516  0.23088546    -0.33000
C1670       C  0.20189039  0.93322989  0.26355548     0.36000
H1671       H  0.13392291  0.98892507  0.28077696     0.16400
O1672       O  0.12518683  0.99540588  0.22076832    -0.60500
H1673       H  0.21865509  0.91945637  0.21716198     0.16400
O1674       O  0.22783376  0.91306763  0.27692223    -0.60600
H1675       H  0.21583248  0.89114172  0.27783247     0.43400
H1676       H  0.10100531  0.98349867  0.22102907     0.43300
C1677       C  0.23704801  0.90462533  0.46822056    -0.05700
C1678       C  0.27570145  0.90801035  0.47099803    -0.33100
C1679       C  0.29368668  0.89663359  0.49782134     0.36100
C1680       C  0.27273446  0.88219502  0.52255433    -0.06100
C1681       C  0.23394938  0.88054852  0.52041684    -0.33000
C1682       C  0.21607856  0.89133189  0.49352209     0.36000
H1683       H  0.29214818  0.91827179  0.45192695     0.16400
O1684       O  0.33164565  0.90037887  0.49988308    -0.60500
H1685       H  0.21739940  0.87006794  0.53932428     0.16400
O1686       O  0.17790047  0.88891224  0.49228243    -0.60600
H1687       H  0.17260097  0.86549739  0.48789019     0.43400
H1688       H  0.34236107  0.88176953  0.48795668     0.43300
C1689       C  0.11736965  0.52133162  0.53263016    -0.05700
C1690       C  0.10654244  0.53641388  0.50452444    -0.33100
C1691       C  0.10677549  0.51914249  0.47610570     0.36100
C1692       C  0.11784660  0.98600761  0.47525292    -0.06100
C1693       C  0.12639196  0.97049168  0.50372322    -0.33000
C1694       C  0.12628209  0.48762340  0.53202121     0.36000
H1695       H  0.09946782  0.56219465  0.50421859     0.16400
O1696       O  0.09780907  0.53557201  0.44920691    -0.60500
H1697       H  0.13480813  0.94503816  0.50406007     0.16400
O1698       O  0.13598483  0.97148091  0.55886144    -0.60600
H1699       H  0.16365732  0.97072017  0.55847698     0.43400
H1700       H  0.07048794  0.53258191  0.44701256     0.43300
C1701       C  0.19279178  0.82837822  0.36709563    -0.05700
C1702       C  0.21916175  0.82273150  0.34321606    -0.33100
C1703       C  0.24306077  0.79577082  0.34438682     0.36100
C1704       C  0.24104282  0.77378340  0.36985692    -0.06100
C1705       C  0.21187612  0.77736988  0.39188610    -0.33000
C1706       C  0.18786126  0.80452530  0.39065177     0.36000
H1707       H  0.22354141  0.84096754  0.32504176     0.16400
O1708       O  0.26960790  0.79219128  0.32131460    -0.60500
H1709       H  0.20929013  0.76037532  0.41130721     0.16400
O1710       O  0.16302485  0.80965379  0.41473746    -0.60600
H1711       H  0.13954345  0.79900480  0.40798642     0.43400
H1712       H  0.25871145  0.77639271  0.30632596     0.43300
C1713       C  0.24211509  0.53122102  0.38130876    -0.05700
C1714       C  0.25832855  0.54174587  0.40921762    -0.33100
C1715       C  0.28397495  0.56790415  0.40923285     0.36100
C1716       C  0.29319082  0.58437789  0.38097309    -0.06100
C1717       C  0.27742993  0.57303738  0.35298056    -0.33000
C1718       C  0.25262622  0.54642581  0.35297285     0.36000
H1719       H  0.25287129  0.02883331  0.43078376     0.16400
O1720       O  0.29942282  0.57745264  0.43703667    -0.60500
H1721       H  0.28364261  0.58536433  0.33104548     0.16400
O1722       O  0.23753824  0.53626691  0.32523865    -0.60600
H1723       H  0.25547107  0.52006546  0.31667364     0.43400
H1724       H  0.27853768  0.58636188  0.44973254     0.43300
C1725       C  0.82633135  0.57653233  0.77864657    -0.05700
C1726       C  0.79237434  0.57906224  0.76260756    -0.33100
C1727       C  0.79137784  0.57901084  0.72982863     0.36100
C1728       C  0.82476852  0.57609950  0.71223096    -0.06100
C1729       C  0.85874465  0.57414563  0.72829466    -0.33000
C1730       C  0.85979031  0.57459341  0.76099818     0.36000
H1731       H  0.76626027  0.58071773  0.77548168     0.16400
O1732       O  0.75743353  0.58090853  0.71540160    -0.60500
H1733       H  0.88489147  0.57230930  0.71548314     0.16400
O1734       O  0.89381484  0.57280737  0.77532475    -0.60600
H1735       H  0.90197703  0.59587206  0.77794316     0.43400
H1736       H  0.75230090  0.60468168  0.71342512     0.43300
C1737       C  0.03793166  0.60358016  0.62661977    -0.05700
C1738       C  0.01966813  0.62765802  0.60894713    -0.33100
C1739       C  0.98062287  0.62855577  0.60776356     0.36100
C1740       C  0.95936537  0.60508839  0.62442834    -0.06100
C1741       C  0.97759709  0.58335528  0.64466027    -0.33000
C1742       C  0.01655427  0.58265219  0.64602674     0.36000
H1743       H  0.03558745  0.64408676  0.59394223     0.16400
O1744       O  0.96387171  0.64985106  0.58743427    -0.60500
H1745       H  0.96163192  0.56559318  0.65817479     0.16400
O1746       O  0.03343499  0.56005756  0.66496034    -0.60600
H1747       H  0.03673459  0.57134139  0.68527421     0.43400
H1748       H  0.96255531  0.67098712  0.59877688     0.43300
C1749       C  0.76670458  0.62675014  0.52245023    -0.05700
C1750       C  0.78078386  0.61946995  0.49243138    -0.33100
C1751       C  0.76341636  0.63133017  0.46558973     0.36100
C1752       C  0.73138417  0.65109551  0.46837980    -0.06100
C1753       C  0.71742815  0.65851924  0.49840961    -0.33000
C1754       C  0.73487150  0.64675051  0.52524697     0.36000
H1755       H  0.80542727  0.60439949  0.48963938     0.16400
O1756       O  0.77789165  0.62312226  0.43683274    -0.66900
H1757       H  0.69283959  0.67365493  0.50121957     0.16400
O1758       O  0.72075371  0.65538140  0.55401403    -0.60600
H1759       H  0.73350050  0.67621383  0.55937165     0.43400
H1760       H  0.76574793  0.60203867  0.43135319     0.43300
C1761       C  0.74830621  0.75059865  0.61952602    -0.05700
C1762       C  0.78105608  0.74971519  0.60107618    -0.33100
C1763       C  0.80427235  0.72196857  0.60104841     0.36100
C1764       C  0.79520067  0.69463279  0.61999695    -0.06100
C1765       C  0.76374583  0.69654543  0.63978771    -0.33000
C1766       C  0.74026600  0.72371364  0.63938706     0.36000
H1767       H  0.78810794  0.77013847  0.58587231     0.16400
O1768       O  0.83491655  0.72146123  0.58160347    -0.60500
H1769       H  0.75585777  0.67604212  0.65462194     0.16400
O1770       O  0.70933170  0.72346991  0.65857691    -0.60600
H1771       H  0.69014215  0.71094679  0.64699780     0.43400
H1772       H  0.85575619  0.72981723  0.59446174     0.43300
C1773       C  0.74980567  0.50119559  0.61818462    -0.05700
C1774       C  0.72363416  0.49608851  0.59447846    -0.33100
C1775       C  0.70033291  0.96853935  0.59471303     0.36100
C1776       C  0.70168336  0.94605768  0.61996216    -0.06100
C1777       C  0.72560787  0.95303166  0.64502451    -0.33000
C1778       C  0.74954335  0.98021950  0.64413561     0.36000
H1779       H  0.72273481  0.51258471  0.57459600     0.16400
O1780       O  0.67719428  0.96329279  0.56982535    -0.60500
H1781       H  0.72715149  0.93648845  0.66483247     0.16400
O1782       O  0.77295252  0.98559512  0.66882858    -0.60600
H1783       H  0.75981194  0.00168975  0.68230308     0.43400
H1784       H  0.69204427  0.45316462  0.55398163     0.43300
C1785       C  0.82174220  0.95403525  0.27946847    -0.05700
C1786       C  0.78858430  0.96125642  0.26361976    -0.33100
C1787       C  0.78763823  0.96164323  0.23081550     0.36100
C1788       C  0.82008007  0.95423669  0.21328694    -0.06100
C1789       C  0.85306890  0.94673918  0.22918673    -0.33000
C1790       C  0.85411707  0.94660787  0.26188072     0.36000
H1791       H  0.76349228  0.96734217  0.27667818     0.16400
O1792       O  0.75508918  0.96993155  0.21620090    -0.60500
H1793       H  0.87821012  0.94060436  0.21620785     0.16400
O1794       O  0.88660243  0.93787531  0.27639613    -0.60600
H1795       H  0.90238219  0.95787966  0.27603148     0.43400
H1796       H  0.75547796  0.99422169  0.21492043     0.43300
C1797       C  0.95982743  0.92887708  0.36496838    -0.05700
C1798       C  0.97845559  0.90184936  0.37771011    -0.33100
C1799       C  0.01750329  0.90118652  0.37891596     0.36100
C1800       C  0.03876949  0.92778664  0.36700737    -0.06100
C1801       C  0.02020580  0.95308271  0.35129375    -0.33000
C1802       C  0.98115396  0.95396845  0.35046962     0.36000
H1803       H  0.96276069  0.88219700  0.38880131     0.16400
O1804       O  0.03435550  0.87529547  0.39354377    -0.60500
H1805       H  0.03579781  0.97351046  0.34146452     0.16400
O1806       O  0.96410467  0.98010333  0.33634557    -0.60600
H1807       H  0.96633628  0.99849716  0.35135976     0.43400
H1808       H  0.04157481  0.86011363  0.37646192     0.43300
C1809       C  0.88169760  0.99930711  0.46517986    -0.05700
C1810       C  0.87824762  0.98079144  0.49278044    -0.33100
C1811       C  0.87728830  0.49579989  0.52238802     0.36100
C1812       C  0.88167201  0.53008114  0.52472616    -0.06100
C1813       C  0.88854479  0.54824486  0.49716230    -0.33000
C1814       C  0.88790919  0.53310762  0.46768054     0.36000
H1815       H  0.87391742  0.95454132  0.49155852     0.16400
O1816       O  0.87113035  0.47687081  0.54850176    -0.60500
H1817       H  0.89254940  0.57453952  0.49826335     0.16400
O1818       O  0.89363870  0.05183628  0.44097013    -0.60600
H1819       H  0.86984401  0.56230078  0.43691335     0.43400
H1820       H  0.89629000  0.47047578  0.55567726     0.43300
C1821       C  0.76816650  0.90285137  0.47044460    -0.05700
C1822       C  0.74266448  0.87690318  0.46809526    -0.33100
C1823       C  0.72583353  0.86359294  0.49482433     0.36100
C1824       C  0.73396946  0.87652458  0.52455972    -0.06100
C1825       C  0.75958318  0.90244521  0.52698427    -0.33000
C1826       C  0.77651604  0.91573579  0.50018317     0.36000
H1827       H  0.73651519  0.86623390  0.44551488     0.16400
O1828       O  0.70153923  0.83781505  0.49160447    -0.60500
H1829       H  0.76556899  0.91315462  0.54958085     0.16400
O1830       O  0.80078693  0.94154866  0.50329079    -0.60600
H1831       H  0.78503843  0.96144938  0.50236642     0.43400
H1832       H  0.71721206  0.81789310  0.49284809     0.43300
C1833       C  0.74732609  0.52744204  0.37613190    -0.05700
C1834       C  0.74988448  0.54935551  0.35088189    -0.33100
C1835       C  0.72647962  0.57655610  0.34889767     0.36100
C1836       C  0.69980073  0.58276031  0.37274394    -0.06100
C1837       C  0.69577204  0.55969846  0.39716796    -0.33000
C1838       C  0.71901662  0.53208049  0.39881290     0.36000
H1839       H  0.77064845  0.54570287  0.33262271     0.16400
O1840       O  0.73087613  0.59743696  0.32389825    -0.60500
H1841       H  0.67581099  0.56385236  0.41592734     0.16400
O1842       O  0.71663968  0.01151350  0.42395543    -0.60600
H1843       H  0.69736065  0.99530303  0.41791332     0.43400
H1844       H  0.75296773  0.61112683  0.32888204     0.43300
C1845       C  0.79677084  0.83316860  0.37179500    -0.05700
C1846       C  0.79843287  0.81093564  0.39704473    -0.33100
C1847       C  0.77605979  0.78249674  0.39785343     0.36100
C1848       C  0.75073017  0.77615049  0.37353401    -0.06100
C1849       C  0.75078918  0.79716005  0.34746399    -0.33000
C1850       C  0.77384102  0.82498971  0.34617819     0.36000
H1851       H  0.81561529  0.81642518  0.41708799     0.16400
O1852       O  0.77710416  0.76250366  0.42366236    -0.60500
H1853       H  0.73240533  0.79221850  0.32803628     0.16400
O1854       O  0.77223658  0.84482982  0.32028180    -0.60600
H1855       H  0.79327249  0.83773260  0.30668199     0.43400
H1856       H  0.79798533  0.74718149  0.41958189     0.43300
loop_ 
_geom_bond_atom_site_label_1 
_geom_bond_atom_site_label_2 
_geom_bond_distance 
_geom_bond_site_symmetry_2 
_ccdc_geom_bond_type 
O1          Cr19   1.998       .  S
O1            C9   1.265       .  A
O2          Cr19   1.968       .  S
O2            C3   1.262       .  A
C3            O4   1.272       .  A
C3          C857   1.481       .  S
O4          Cr20   2.023       .  S
O5          Cr20   1.972       .  S
O5            C6   1.258       .  A
C6            O7   1.269       .  A
C6          C917   1.497       .  S
O7          Cr21   2.031       .  S
O8          Cr21   1.989       .  S
O8            C9   1.265       .  A
C9          C869   1.485       .  S
O10         Cr19   1.985       .  S
O10          C18   1.265       .  A
O11         Cr19   2.007       .  S
O11          C12   1.264       .  A
C12          O13   1.257       .  A
C12        C1833   1.483       .  S
O13         Cr20   1.982       .  S
O14         Cr20   2.015       .  S
O14          C15   1.269       .  A
C15          O16   1.256       .  A
C15         C893   1.470       .  S
O16         Cr21   1.959       .  S
O17         Cr21   2.012       .  S
O17          C18   1.269       .  A
C18         C881   1.481       .  S
Cr19         O22   1.768       .  S
Cr20         O22   1.769       .  S
Cr21         O22   1.770       .  S
O23         Cr41   2.003       .  S
O23          C31   1.267       .  A
O24         Cr41   1.971       .  S
O24          C25   1.262       .  A
C25          O26   1.270       .  A
C25         C800   1.488       .  S
O26         Cr42   2.018       .  S
O27         Cr42   1.962       .  S
O27          C28   1.256       .  A
C28          O29   1.267       .  A
C28         C836   1.488       .  S
O29         Cr43   2.027       .  S
O30         Cr43   1.980       .  S
O30          C31   1.261       .  A
C31         C812   1.477       .  S
O32         Cr41   1.981       .  S
O32          C40   1.264       .  A
O33         Cr41   2.015       .  S
O33          C34   1.265       .  A
C34          O35   1.258       .  A
C34         C845   1.482       .  S
O35         Cr42   1.978       .  S
O36         Cr42   2.017       .  S
O36          C37   1.269       .  A
C37          O38   1.257       .  A
C37         C821   1.478       .  S
O38         Cr43   1.956       .  S
O39         Cr43   2.016       .  S
O39          C40   1.269       .  A
C40         C884   1.488       .  S
Cr41         O44   1.764       .  S
Cr42         O44   1.763       .  S
Cr43         O44   1.773       .  S
O45         Cr63   2.020       .  S
O45          C53   1.274       .  A
O46         Cr63   1.988       .  S
O46          C47   1.261       .  A
C47          O48   1.259       .  A
C47         C872   1.487       .  S
O48         Cr64   1.985       .  S
O49         Cr64   2.004       .  S
O49          C50   1.267       .  A
C50          O51   1.259       .  A
C50         C773   1.474       .  S
O51         Cr65   1.976       .  S
O52         Cr65   1.971       .  S
O52          C53   1.265       .  A
C53         C737   1.488       .  S
O54         Cr63   2.001       .  S
O54          C62   1.257       .  A
O55         Cr63   2.012       .  S
O55          C56   1.268       .  A
C56          O57   1.262       .  A
C56         C764   1.497       .  S
O57         Cr64   1.980       .  S
O58         Cr64   1.969       .  S
O58          C59   1.258       .  A
C59          O60   1.269       .  A
C59         C749   1.472       .  S
O60         Cr65   2.003       .  S
O61         Cr65   1.986       .  S
O61          C62   1.252       .  A
C62        C1713   1.474       .  S
Cr63         O66   1.779       .  S
Cr64         O66   1.780       .  S
Cr65         O66   1.776       .  S
O67         Cr85   1.960       .  S
O67          C75   1.259       .  A
O68         Cr85   2.011       .  S
O68          C69   1.268       .  A
C69          O70   1.260       .  A
C69         C809   1.479       .  S
O70         Cr86   1.974       .  S
O71         Cr86   2.042       .  S
O71          C72   1.272       .  A
C72          O73   1.257       .  A
C72         C716   1.497       .  S
O73         Cr87   1.964       .  S
O74         Cr87   2.017       .  S
O74          C75   1.270       .  A
C75         C689   1.480       .  S
O76         Cr85   2.017       .  S
O76          C84   1.267       .  A
O77         Cr85   1.971       .  S
O77          C78   1.261       .  A
C78          O79   1.273       .  A
C78         C761   1.493       .  S
O79         Cr86   2.029       .  S
O80         Cr86   1.948       .  S
O80          C81   1.253       .  A
C81          O82   1.268       .  A
C81         C728   1.470       .  S
O82         Cr87   2.009       .  S
O83         Cr87   1.978       .  S
O83          C84   1.258       .  A
C84         C704   1.484       .  S
Cr85         O88   1.761       .  S
Cr86         O88   1.768       .  S
Cr87         O88   1.762       .  S
O89        Cr107   2.016       .  S
O89          C97   1.271       .  A
O90        Cr107   1.960       .  S
O90          C91   1.260       .  A
C91          O92   1.270       .  A
C91         C653   1.478       .  S
O92        Cr108   2.009       .  S
O93        Cr108   1.967       .  S
O93          C94   1.256       .  A
C94          O95   1.266       .  A
C94         C788   1.488       .  S
O95        Cr109   2.024       .  S
O96        Cr109   1.984       .  S
O96          C97   1.264       .  A
C97         C665   1.490       .  S
O98        Cr107   1.977       .  S
O98         C106   1.261       .  A
O99        Cr107   2.019       .  S
O99         C100   1.267       .  A
C100        O101   1.256       .  A
C100        C776   1.487       .  S
O101       Cr108   1.979       .  S
O102       Cr108   2.009       .  S
O102        C103   1.269       .  A
C103        O104   1.257       .  A
C103        C725   1.471       .  S
O104       Cr109   1.952       .  S
O105       Cr109   2.016       .  S
O105        C106   1.266       .  A
C106        C677   1.471       .  S
Cr107       O110   1.760       .  S
Cr108       O110   1.765       .  S
Cr109       O110   1.771       .  S
O111       Cr129   2.007       .  S
O111        C119   1.267       .  A
O112       Cr129   1.962       .  S
O112        C113   1.263       .  A
C113        O114   1.275       .  A
C113        C629   1.487       .  S
O114       Cr130   2.030       .  S
O115       Cr130   1.964       .  S
O115        C116   1.257       .  A
C116        O117   1.267       .  A
C116        C701   1.490       .  S
O117       Cr131   2.022       .  S
O118       Cr131   1.982       .  S
O118        C119   1.261       .  A
C119        C641   1.484       .  S
O120       Cr129   1.971       .  S
O120        C128   1.262       .  A
O121       Cr129   2.013       .  S
O121        C122   1.264       .  A
C122        O123   1.258       .  A
C122        C713   1.489       .  S
O123       Cr130   1.994       .  S
O124       Cr130   2.021       .  S
O124        C125   1.271       .  A
C125        O126   1.254       .  A
C125        C752   1.471       .  S
O126       Cr131   1.944       .  S
O127       Cr131   2.020       .  S
O127        C128   1.269       .  A
C128        C680   1.467       .  S
Cr129       O132   1.764       .  S
Cr130       O132   1.762       .  S
Cr131       O132   1.775       .  S
O133       Cr151   1.971       .  S
O133        C141   1.263       .  A
O134       Cr151   2.008       .  S
O134        C135   1.269       .  A
C135        O136   1.264       .  A
C135        C668   1.490       .  S
O136       Cr152   1.990       .  S
O137       Cr152   2.024       .  S
O137        C138   1.267       .  A
C138        O139   1.255       .  A
C138        C908   1.490       .  S
O139       Cr153   1.964       .  S
O140       Cr153   2.018       .  S
O140        C141   1.271       .  A
C141        C608   1.488       .  S
O142       Cr151   2.021       .  S
O142        C150   1.267       .  A
O143       Cr151   1.982       .  S
O143        C144   1.265       .  A
C144        O145   1.268       .  A
C144        C620   1.485       .  S
O145       Cr152   2.010       .  S
O146       Cr152   1.957       .  S
O146        C147   1.257       .  A
C147        O148   1.269       .  A
C147        C824   1.478       .  S
O148       Cr153   2.016       .  S
O149       Cr153   1.987       .  S
O149        C150   1.258       .  A
C150        C920   1.490       .  S
Cr151       O154   1.763       .  S
Cr152       O154   1.775       .  S
Cr153       O154   1.765       .  S
O155       Cr173   1.969       .  S
O155        C163   1.263       .  A
O156       Cr173   1.998       .  S
O156        C157   1.266       .  A
C157        O158   1.263       .  A
C157        C644   1.486       .  S
O158       Cr174   1.990       .  S
O159       Cr174   2.014       .  S
O159        C160   1.265       .  A
C160        O161   1.258       .  A
C160        C848   1.491       .  S
O161       Cr175   1.972       .  S
O162       Cr175   2.016       .  S
O162        C163   1.271       .  A
C163        C593   1.486       .  S
O164       Cr173   1.997       .  S
O164        C172   1.262       .  A
O165       Cr173   1.984       .  S
O165        C166   1.264       .  A
C166        O167   1.268       .  A
C166        C617   1.481       .  S
O167       Cr174   2.009       .  S
O168       Cr174   1.956       .  S
O168        C169   1.256       .  A
C169        O170   1.269       .  A
C169        C896   1.470       .  S
O170       Cr175   2.017       .  S
O171       Cr175   1.989       .  S
O171        C172   1.259       .  A
C172        C833   1.489       .  S
Cr173       O176   1.765       .  S
Cr174       O176   1.771       .  S
Cr175       O176   1.771       .  S
O177       Cr195   1.969       .  S
O177        C185   1.263       .  A
O178       Cr195   2.009       .  S
O178        C179   1.268       .  A
C179        O180   1.264       .  A
C179        C533   1.489       .  S
O180       Cr196   1.989       .  S
O181       Cr196   2.021       .  S
O181        C182   1.267       .  A
C182        O183   1.258       .  A
C182        C584   1.493       .  S
O183       Cr197   1.970       .  S
O184       Cr197   2.023       .  S
O184        C185   1.271       .  A
C185        C860   1.481       .  S
O186       Cr195   2.013       .  S
O186        C194   1.265       .  A
O187       Cr195   1.985       .  S
O187        C188   1.264       .  A
C188        O189   1.268       .  A
C188        C545   1.482       .  S
O189       Cr196   2.009       .  S
O190       Cr196   1.960       .  S
O190        C191   1.256       .  A
C191        O192   1.269       .  A
C191        C557   1.476       .  S
O192       Cr197   2.018       .  S
O193       Cr197   1.978       .  S
O193        C194   1.256       .  A
C194       C1497   1.481       .  S
Cr195       O198   1.767       .  S
Cr196       O198   1.771       .  S
Cr197       O198   1.770       .  S
O199       Cr217   1.971       .  S
O199        C207   1.263       .  A
O200       Cr217   1.992       .  S
O200        C201   1.264       .  A
C201        O202   1.264       .  A
C201        C485   1.485       .  S
O202       Cr218   1.994       .  S
O203       Cr218   2.024       .  S
O203        C204   1.267       .  A
C204        O205   1.257       .  A
C204        C512   1.492       .  S
O205       Cr219   1.965       .  S
O206       Cr219   2.020       .  S
O206        C207   1.272       .  A
C207        C797   1.488       .  S
O208       Cr217   2.004       .  S
O208        C216   1.262       .  A
O209       Cr217   1.983       .  S
O209        C210   1.265       .  A
C210        O211   1.269       .  A
C210        C548   1.485       .  S
O211       Cr218   2.012       .  S
O212       Cr218   1.958       .  S
O212        C213   1.257       .  A
C213        O214   1.269       .  A
C213        C497   1.474       .  S
O214       Cr219   2.016       .  S
O215       Cr219   1.985       .  S
O215        C216   1.258       .  A
C216        C521   1.483   1_545  S
Cr217       O220   1.764       .  S
Cr218       O220   1.773       .  S
Cr219       O220   1.765       .  S
O221       Cr239   2.010       .  S
O221        C229   1.268       .  A
O222       Cr239   1.974       .  S
O222        C223   1.264       .  A
C223        O224   1.272       .  A
C223        C740   1.482       .  S
O224       Cr240   2.017       .  S
O225       Cr240   1.967       .  S
O225        C226   1.256       .  A
C226        O227   1.269       .  A
C226        C461   1.494       .  S
O227       Cr241   2.027       .  S
O228       Cr241   1.987       .  S
O228        C229   1.264       .  A
C229        C536   1.489       .  S
O230       Cr239   1.990       .  S
O230        C238   1.265       .  A
O231       Cr239   2.011       .  S
O231        C232   1.264       .  A
C232        O233   1.257       .  A
C232       C1401   1.480       .  S
O233       Cr240   1.979       .  S
O234       Cr240   2.023       .  S
O234        C235   1.269       .  A
C235        O236   1.255       .  A
C235        C440   1.478       .  S
O236       Cr241   1.957       .  S
O237       Cr241   2.011       .  S
O237        C238   1.268       .  A
C238        C449   1.485       .  S
Cr239       O242   1.771       .  S
Cr240       O242   1.769       .  S
Cr241       O242   1.773       .  S
O243       Cr261   2.003       .  S
O243        C251   1.268       .  A
O244       Cr261   1.966       .  S
O244        C245   1.263       .  A
C245        O246   1.269       .  A
C245        C692   1.480       .  S
O246       Cr262   2.012       .  S
O247       Cr262   1.970       .  S
O247        C248   1.257       .  A
C248        O249   1.267       .  A
C248        C413   1.491       .  S
O249       Cr263   2.020       .  S
O250       Cr263   1.983       .  S
O250        C251   1.261       .  A
C251        C488   1.484       .  S
O252       Cr261   1.986       .  S
O252        C260   1.265       .  A
O253       Cr261   2.009       .  S
O253        C254   1.264       .  A
C254        O255   1.257       .  A
C254        C401   1.479       .  S
O255       Cr262   1.979       .  S
O256       Cr262   2.008       .  S
O256        C257   1.268       .  A
C257        O258   1.256       .  A
C257        C425   1.475       .  S
O258       Cr263   1.953       .  S
O259       Cr263   2.014       .  S
O259        C260   1.269       .  A
C260        C452   1.490       .  S
Cr261       O264   1.763       .  S
Cr262       O264   1.765       .  S
Cr263       O264   1.769       .  S
O265       Cr283   1.964       .  S
O265        C273   1.261       .  A
O266       Cr283   2.010       .  S
O266        C267   1.268       .  A
C267        O268   1.260       .  A
C267        C377   1.480       .  S
O268       Cr284   1.975       .  S
O269       Cr284   2.013       .  S
O269        C270   1.265       .  A
C270        O271   1.258       .  A
C270        C476   1.487       .  S
O271       Cr285   1.972       .  S
O272       Cr285   2.010       .  S
O272        C273   1.269       .  A
C273        C656   1.479       .  S
O274       Cr283   2.017       .  S
O274        C282   1.266       .  A
O275       Cr283   1.981       .  S
O275        C276   1.263       .  A
C276        O277   1.267       .  A
C276        C389   1.479       .  S
O277       Cr284   2.006       .  S
O278       Cr284   1.949       .  S
O278        C279   1.255       .  A
C279        O280   1.268       .  A
C279        C428   1.476       .  S
O280       Cr285   2.015       .  S
O281       Cr285   1.985       .  S
O281        C282   1.259       .  A
C282        C464   1.485       .  S
Cr283       O286   1.764       .  S
Cr284       O286   1.767       .  S
Cr285       O286   1.765       .  S
O287       Cr305   1.971       .  S
O287        C295   1.263       .  A
O288       Cr305   2.006       .  S
O288        C289   1.267       .  A
C289        O290   1.263       .  A
C289        C365   1.486       .  S
O290       Cr306   1.987       .  S
O291       Cr306   2.017       .  S
O291        C292   1.266       .  A
C292        O293   1.256       .  A
C292        C404   1.487       .  S
O293       Cr307   1.965       .  S
O294       Cr307   2.019       .  S
O294        C295   1.272       .  A
C295        C632   1.487       .  S
O296       Cr305   2.013       .  S
O296        C304   1.264       .  A
O297       Cr305   1.982       .  S
O297        C298   1.264       .  A
C298        O299   1.267       .  A
C298        C392   1.481       .  S
O299       Cr306   2.006       .  S
O300       Cr306   1.958       .  S
O300        C301   1.256       .  A
C301        O302   1.269       .  A
C301        C437   1.478       .  S
O302       Cr307   2.021       .  S
O303       Cr307   1.983       .  S
O303        C304   1.258       .  A
C304        C416   1.482       .  S
Cr305       O308   1.765       .  S
Cr306       O308   1.772       .  S
Cr307       O308   1.765       .  S
O309       Cr327   1.998       .  S
O309        C317   1.266       .  A
O310       Cr327   1.970       .  S
O310        C311   1.262       .  A
C311        O312   1.271       .  A
C311        C605   1.487       .  S
O312       Cr328   2.016       .  S
O313       Cr328   1.969       .  S
O313        C314   1.257       .  A
C314        O315   1.265       .  A
C314        C572   1.488       .  S
O315       Cr329   2.015       .  S
O316       Cr329   1.983       .  S
O316        C317   1.262       .  A
C317        C380   1.479       .  S
O318       Cr327   1.982       .  S
O318        C326   1.264       .  A
O319       Cr327   2.010       .  S
O319        C320   1.264       .  A
C320        O321   1.259       .  A
C320        C581   1.488       .  S
O321       Cr328   1.985       .  S
O322       Cr328   2.017       .  S
O322        C323   1.270       .  A
C323        O324   1.256       .  A
C323        C500   1.475       .  S
O324       Cr329   1.959       .  S
O325       Cr329   2.003       .  S
O325        C326   1.266       .  A
C326        C353   1.477       .  S
Cr327       O330   1.765       .  S
Cr328       O330   1.766       .  S
Cr329       O330   1.773       .  S
O331       Cr349   2.004       .  S
O331        C339   1.267       .  A
O332       Cr349   1.961       .  S
O332        C333   1.261       .  A
C333        O334   1.273       .  A
C333        C596   1.486       .  S
O334       Cr350   2.024       .  S
O335       Cr350   1.967       .  S
O335        C336   1.258       .  A
C336        O337   1.267       .  A
C336        C524   1.490       .  S
O337       Cr351   2.019       .  S
O338       Cr351   1.988       .  S
O338        C339   1.263       .  A
C339        C368   1.486       .  S
O340       Cr349   1.971       .  S
O340        C348   1.262       .  A
O341       Cr349   2.012       .  S
O341        C342   1.265       .  A
C342        O343   1.257       .  A
C342        C509   1.487       .  S
O343       Cr350   1.982       .  S
O344       Cr350   2.019       .  S
O344        C345   1.269       .  A
C345        O346   1.256       .  A
C345        C560   1.476       .  S
O346       Cr351   1.958       .  S
O347       Cr351   2.008       .  S
O347        C348   1.268       .  A
C348        C356   1.476       .  S
Cr349       O352   1.765       .  S
Cr350       O352   1.766       .  S
Cr351       O352   1.771       .  S
C353        C354   1.406   1_554  A
C353        C358   1.407       .  A
C354        C355   1.397       .  A
C354        H359   1.083       .  S
C355        C356   1.408       .  A
C355        O360   1.372       .  S
C356        C357   1.406       .  A
C357        C358   1.400   1_556  A
C357        H361   1.083       .  S
C358        O362   1.372       .  S
O360        H364   0.992       .  S
O362        H363   0.992       .  S
C365        C366   1.407       .  A
C365        C370   1.411       .  A
C366        C367   1.407       .  A
C366        H371   1.083       .  S
C367        C368   1.412       .  A
C367        O372   1.371       .  S
C368        C369   1.405       .  A
C369        C370   1.396       .  A
C369        H373   1.084       .  S
C370        O374   1.372       .  S
O372        H376   0.992       .  S
O374        H375   0.991       .  S
C377        C378   1.407       .  A
C377        C382   1.408       .  A
C378        C379   1.404       .  A
C378        H383   1.084       .  S
C379        C380   1.410       .  A
C379        O384   1.371       .  S
C380        C381   1.404       .  A
C381        C382   1.394       .  A
C381        H385   1.084       .  S
C382        O386   1.372       .  S
O384        H388   0.992       .  S
O386        H387   0.992       .  S
C389        C390   1.406   1_554  A
C389        C394   1.408       .  A
C390        C391   1.399       .  A
C390        H395   1.084   1_556  S
C391        C392   1.408       .  A
C391        O396   1.371       .  S
C392        C393   1.408       .  A
C393        C394   1.402   1_556  A
C393        H397   1.084       .  S
C394        O398   1.372       .  S
O396        H400   0.992       .  S
O398        H399   0.992       .  S
C401        C406   1.408   1_545  A
C401       C1330   1.403   1_545  A
C402        C403   1.399       .  A
C402       C1329   1.403       .  A
C402        H407   1.084       .  S
C403        C404   1.413       .  A
C403        O408   1.373       .  S
C404        C405   1.409       .  A
C405       C1334   1.403       .  A
C405        H409   1.083       .  S
C406       C1333   1.403       .  A
C406        O410   1.371   1_565  S
O408        H412   0.992       .  S
O410        H411   0.992       .  S
C413        C414   1.408       .  A
C413        C418   1.415       .  A
C414        C415   1.400       .  A
C414        H419   1.084       .  S
C415        C416   1.410       .  A
C415        O420   1.372       .  S
C416        C417   1.403       .  A
C417        C418   1.404       .  A
C417        H421   1.084       .  S
C418        O422   1.371       .  S
O420        H424   0.992       .  S
O422        H423   0.992       .  S
C425        C426   1.408   1_556  A
C425        C430   1.408       .  A
C426        C427   1.396       .  A
C426        H431   1.084       .  S
C427        C428   1.409       .  A
C427        O432   1.372       .  S
C428        C429   1.407   1_554  A
C429        C430   1.391       .  A
C429        H433   1.083       .  S
C430        O434   1.372       .  S
O432        H436   0.992       .  S
O434        H435   0.992       .  S
C437        C438   1.407       .  A
C437        C442   1.409       .  A
C438        C439   1.398   1_556  A
C438        H443   1.084   1_556  S
C439        C440   1.408       .  A
C439        O444   1.372       .  S
C440        C441   1.407   1_554  A
C441        C442   1.398       .  A
C441        H445   1.084       .  S
C442        O446   1.372       .  S
O444        H448   0.991       .  S
O446        H447   0.991       .  S
C449        C450   1.406       .  A
C449       C1382   1.408       .  A
C450       C1379   1.403   1_554  A
C450        H455   1.084       .  S
C451        C452   1.411   1_565  A
C451       C1378   1.403   1_556  A
C451       O1384   1.372       .  S
C452        C453   1.409       .  A
C453        C454   1.405   1_556  A
C453        H457   1.083       .  S
C454       C1377   1.408   1_545  A
C454        O458   1.372       .  S
O456       C1379   1.372       .  S
O456        H460   0.992       .  S
O458        H459   0.992       .  S
C461        C462   1.409       .  A
C461        C466   1.415       .  A
C462        C463   1.405       .  A
C462        H467   1.083       .  S
C463        C464   1.408       .  A
C463        O468   1.371       .  S
C464        C465   1.404       .  A
C465        C466   1.403       .  A
C465        H469   1.084       .  S
C466        O470   1.373       .  S
O468        H472   0.992       .  S
O470        H471   0.992       .  S
C473       C1160   1.480       .  S
C473        C474   1.402       .  A
C473        C478   1.410       .  A
C474        C475   1.402       .  A
C474       H1407   1.084       .  S
C475        C476   1.415       .  A
C475        O480   1.371       .  S
C476        C477   1.407       .  A
C477        C478   1.398       .  A
C477        H481   1.084       .  S
C478        O482   1.372       .  S
H479       C1402   1.084       .  S
O480        H484   0.991       .  S
O482        H483   0.992       .  S
C485        C486   1.406       .  A
C485        C490   1.413       .  A
C486        C487   1.406   1_655  A
C486        H491   1.083       .  S
C487        C488   1.413       .  A
C487        O492   1.371       .  S
C488        C489   1.403       .  A
C489        C490   1.393   1_455  A
C489        H493   1.084       .  S
C490        O494   1.372       .  S
O492        H496   0.992       .  S
O494        H495   0.992       .  S
C497        C498   1.402       .  A
C497        C502   1.411       .  A
C498        C499   1.397       .  A
C498        H503   1.084       .  S
C499        C500   1.411   1_556  A
C499        O504   1.372       .  S
C500        C501   1.403       .  A
C501        C502   1.397   1_554  A
C501        H505   1.084       .  S
C502        O506   1.372   1_556  S
O504        H508   0.992       .  S
O506        H507   0.992       .  S
C509        C510   1.406       .  A
C509        C514   1.410       .  A
C510        C511   1.406       .  A
C510        H515   1.084       .  S
C511        C512   1.415       .  A
C511        O516   1.372       .  S
C512        C513   1.408       .  A
C513        C514   1.398       .  A
C513        H517   1.083       .  S
C514        O518   1.372       .  S
O516        H520   0.992       .  S
O518        H519   0.992       .  S
C521        C522   1.403       .  A
C521       C1454   1.410       .  A
C522       C1451   1.403       .  A
C522        H527   1.084   1_565  S
C523        C524   1.415       .  A
C523       C1450   1.403       .  A
C523        O528   1.371       .  S
C524        C525   1.407       .  A
C525        C526   1.400       .  A
C525        H529   1.084       .  S
C526       C1449   1.410       .  A
C526        O530   1.372       .  S
O528       H1460   0.991       .  S
O530        H531   0.992       .  S
H532       O1456   0.991       .  S
C533        C534   1.405       .  A
C533        C538   1.412       .  A
C534        C535   1.401   1_655  A
C534        H539   1.084       .  S
C535        C536   1.411       .  A
C535        O540   1.373       .  S
C536        C537   1.407       .  A
C537        C538   1.407   1_455  A
C537        H541   1.083       .  S
C538        O542   1.371       .  S
O540        H544   0.992       .  S
O542        H543   0.992       .  S
C545        C546   1.406   1_554  A
C545       C1478   1.408       .  A
C546       C1475   1.401       .  A
C546        H551   1.083       .  S
C547        C548   1.409   1_565  A
C547       C1474   1.401       .  A
C547        O552   1.371       .  S
C548        C549   1.407       .  A
C549        C550   1.402   1_556  A
C549        H553   1.083       .  S
C550       C1473   1.408   1_545  A
C550        O554   1.372       .  S
O552       H1484   0.991       .  S
O554        H555   0.992       .  S
H556       O1480   0.991       .  S
C557        C558   1.403       .  A
C557        C562   1.412   1_554  A
C558        C559   1.397       .  A
C558        H563   1.084       .  S
C559        C560   1.412   1_554  A
C559        O564   1.371       .  S
C560        C561   1.402       .  A
C561        C562   1.396       .  A
C561        H565   1.084       .  S
C562        O566   1.371       .  S
O564        H568   0.991       .  S
O566        H567   0.992       .  S
C569       C1122   1.481   1_545  S
C569        C570   1.404       .  A
C569        C574   1.408       .  A
C570        C571   1.404       .  A
C570       H1503   1.084       .  S
C571        C572   1.415       .  A
C571        O576   1.372       .  S
C572        C573   1.406       .  A
C573        C574   1.398       .  A
C573        H577   1.083       .  S
C574        O578   1.372       .  S
H575       C1498   1.084       .  S
O576        H580   0.992       .  S
O578        H579   0.992       .  S
C581        C582   1.405       .  A
C581        C586   1.412       .  A
C582        C583   1.406       .  A
C582        H587   1.083       .  S
C583        C584   1.415       .  A
C583        O588   1.372       .  S
C584        C585   1.407       .  A
C585        C586   1.400       .  A
C585        H589   1.083       .  S
C586        O590   1.372       .  S
O588        H592   0.992       .  S
O590        H591   0.992       .  S
C593        C594   1.407       .  A
C593        C598   1.412       .  A
C594        C595   1.401       .  A
C594        H599   1.083       .  S
C595        C596   1.411       .  A
C595        O600   1.371       .  S
C596        C597   1.407       .  A
C597        C598   1.397       .  A
C597        H601   1.083       .  S
C598        O602   1.372       .  S
O600        H604   0.992       .  S
O602        H603   0.992       .  S
C605        C606   1.406       .  A
C605        C610   1.413       .  A
C606        C607   1.400       .  A
C606        H611   1.083       .  S
C607        C608   1.412       .  A
C607        O612   1.371       .  S
C608        C609   1.407       .  A
C609        C610   1.399       .  A
C609        H613   1.083       .  S
C610        O614   1.372       .  S
O612        H616   0.992       .  S
O614        H615   0.992       .  S
C617        C618   1.405       .  A
C617        C622   1.407       .  A
C618        C619   1.400       .  A
C618        H623   1.084       .  S
C619        C620   1.410       .  A
C619        O624   1.371       .  S
C620        C621   1.408       .  A
C621        C622   1.403       .  A
C621        H625   1.084       .  S
C622        O626   1.372       .  S
O624        H628   0.991       .  S
O626        H627   0.992       .  S
C629        C630   1.407       .  A
C629        C634   1.411       .  A
C630        C631   1.398       .  A
C630        H635   1.084       .  S
C631        C632   1.412       .  A
C631        O636   1.372       .  S
C632        C633   1.407       .  A
C633        C634   1.402       .  A
C633        H637   1.083       .  S
C634        O638   1.371       .  S
O636        H640   0.992       .  S
O638        H639   0.992       .  S
C641        C642   1.407       .  A
C641        C646   1.410       .  A
C642        C643   1.406       .  A
C642        H647   1.083       .  S
C643        C644   1.411       .  A
C643        O648   1.371       .  S
C644        C645   1.406       .  A
C645        C646   1.395       .  A
C645        H649   1.084       .  S
C646        O650   1.372       .  S
O648        H652   0.992       .  S
O650        H651   0.992       .  S
C653        C654   1.404       .  A
C653        C658   1.412       .  A
C654        C655   1.396       .  A
C654        H659   1.083       .  S
C655        C656   1.411       .  A
C655        O660   1.371       .  S
C656        C657   1.405       .  A
C657        C658   1.395       .  A
C657        H661   1.084       .  S
C658        O662   1.372       .  S
O660        H664   0.992       .  S
O662        H663   0.992       .  S
C665        C666   1.408       .  A
C665        C670   1.411       .  A
C666        C667   1.408       .  A
C666        H671   1.083       .  S
C667        C668   1.413       .  A
C667        O672   1.371       .  S
C668        C669   1.405       .  A
C669        C670   1.397       .  A
C669        H673   1.084       .  S
C670        O674   1.372       .  S
O672        H676   0.992       .  S
O674        H675   0.991       .  S
C677        C678   1.400       .  A
C677        C682   1.410       .  A
C678        C679   1.396       .  A
C678        H683   1.084       .  S
C679        C680   1.406       .  A
C679        O684   1.373       .  S
C680        C681   1.402       .  A
C681        C682   1.405       .  A
C681        H685   1.083       .  S
C682        O686   1.371       .  S
O684        H688   0.989       .  S
O686        H687   0.992       .  S
C689        C690   1.405       .  A
C689        C694   1.412       .  A
C690        C691   1.400       .  A
C690        H695   1.083       .  S
C691        C692   1.412       .  A
C691        O696   1.371       .  S
C692        C693   1.403       .  A
C693        C694   1.394       .  A
C693        H697   1.084       .  S
C694        O698   1.372       .  S
O696        H700   0.992       .  S
O698        H699   0.992       .  S
C701        C702   1.407       .  A
C701        C706   1.415       .  A
C702        C703   1.398       .  A
C702        H707   1.083       .  S
C703       C1632   1.408       .  A
C703        O708   1.372       .  S
C704        C705   1.406   1_545  A
C704       C1631   1.408   1_545  A
C705       C1634   1.406       .  A
C705        H709   1.084   1_565  S
C706       C1633   1.406       .  A
C706        O710   1.372       .  S
O708        H712   0.992       .  S
O710       H1639   0.992       .  S
H711       O1638   0.992       .  S
C713        C714   1.403       .  A
C713        C718   1.411       .  A
C714        C715   1.399       .  A
C714        H719   1.084       .  S
C715        C716   1.416       .  A
C715        O720   1.372       .  S
C716        C717   1.410       .  A
C717        C718   1.410       .  A
C717        H721   1.083       .  S
C718        O722   1.371       .  S
O720        H724   0.992       .  S
O722        H723   0.991       .  S
C725        C726   1.403       .  A
C725        C730   1.412       .  A
C726        C727   1.393       .  A
C726        H731   1.084       .  S
C727        C728   1.413       .  A
C727        O732   1.373       .  S
C728        C729   1.401       .  A
C729        C730   1.390       .  A
C729        H733   1.084       .  S
C730        O734   1.372       .  S
O732        H736   0.992       .  S
O734        H735   0.992       .  S
C737        C738   1.407       .  A
C737        C742   1.413       .  A
C738        C739   1.402       .  A
C738        H743   1.083       .  S
C739        C740   1.410       .  A
C739        O744   1.372       .  S
C740        C741   1.403       .  A
C741        C742   1.400       .  A
C741        H745   1.084       .  S
C742        O746   1.372       .  S
O744        H748   0.992       .  S
O746        H747   0.992       .  S
C749        C750   1.398       .  A
C749        C754   1.417       .  A
C750        C751   1.399       .  A
C750        H755   1.084       .  S
C751        C752   1.416       .  A
C751        O756   1.372       .  S
C752        C753   1.395       .  A
C753        C754   1.392       .  A
C753        H757   1.084       .  S
C754        O758   1.373       .  S
O756        H760   0.992       .  S
O758        H759   0.992       .  S
C761        C762   1.407       .  A
C761        C766   1.414   1_545  A
C762        C763   1.406       .  A
C762        H767   1.083       .  S
C763       C1692   1.414   1_545  A
C763        O768   1.371       .  S
C764        C765   1.407       .  A
C764       C1691   1.414       .  A
C765       C1694   1.402       .  A
C765        H769   1.083       .  S
C766       C1693   1.401       .  A
C766       O1698   1.372       .  S
O768        H772   0.992       .  S
O770       C1694   1.372       .  S
O770        H771   0.992       .  S
C773        C774   1.404       .  A
C773        C778   1.408       .  A
C774        C775   1.398       .  A
C774        H779   1.084       .  S
C775        C776   1.410       .  A
C775        O780   1.372       .  S
C776        C777   1.408       .  A
C777        C778   1.407       .  A
C777        H781   1.083       .  S
C778        O782   1.371       .  S
O780        H784   0.992       .  S
O782        H783   0.991       .  S
C785        C990   1.473       .  S
C785        C786   1.400       .  A
C785        C790   1.407       .  A
C786        C787   1.406       .  A
C786       H1719   1.084       .  S
C787        C788   1.417       .  A
C787        O792   1.372       .  S
C788        C789   1.407       .  A
C789        C790   1.401       .  A
C789        H793   1.084       .  S
C790        O794   1.372       .  S
H791       C1714   1.084       .  S
O792        H796   0.991       .  S
O794        H795   0.992       .  S
C797        C798   1.406       .  A
C797        C802   1.413       .  A
C798        C799   1.402       .  A
C798        H803   1.083       .  S
C799        C800   1.413       .  A
C799        O804   1.371       .  S
C800        C801   1.406       .  A
C801        C802   1.399       .  A
C801        H805   1.084       .  S
C802        O806   1.372       .  S
O804        H808   0.992       .  S
O806        H807   0.992       .  S
C809        C810   1.406       .  A
C809        C814   1.408       .  A
C810        C811   1.401   1_455  A
C810        H815   1.084       .  S
C811        C812   1.409       .  A
C811        O816   1.371       .  S
C812        C813   1.404       .  A
C813        C814   1.398   1_655  A
C813        H817   1.084       .  S
C814        O818   1.372       .  S
O816        H820   0.992       .  S
O818        H819   0.992       .  S
C821        C822   1.407       .  A
C821        C826   1.409       .  A
C822        C823   1.397       .  A
C822        H827   1.084       .  S
C823        C824   1.409       .  A
C823        O828   1.372       .  S
C824        C825   1.407       .  A
C825        C826   1.396       .  A
C825        H829   1.084       .  S
C826        O830   1.372       .  S
O828        H832   0.992       .  S
O830        H831   0.992       .  S
C833        C834   1.408       .  A
C833        C838   1.412       .  A
C834        C835   1.407       .  A
C834        H839   1.083       .  S
C835        C836   1.412       .  A
C835        O840   1.371       .  S
C836        C837   1.405       .  A
C837        C838   1.395       .  A
C837        H841   1.084       .  S
C838        O842   1.372       .  S
O840        H844   0.992       .  S
O842        H843   0.992       .  S
C845        C846   1.402   1_545  A
C845       C1778   1.410   1_545  A
C846       C1775   1.403       .  A
C846        H851   1.084   1_565  S
C847        C848   1.416       .  A
C847       C1774   1.404       .  A
C847        O852   1.372       .  S
C848        C849   1.408       .  A
C849        C850   1.400       .  A
C849        H853   1.083       .  S
C850       C1773   1.410       .  A
C850        O854   1.372       .  S
O852       H1784   0.992       .  S
O854        H855   0.992       .  S
H856       O1780   0.992       .  S
C857        C858   1.405       .  A
C857        C862   1.410       .  A
C858        C859   1.403       .  A
C858        H863   1.084       .  S
C859        C860   1.411       .  A
C859        O864   1.372       .  S
C860        C861   1.404       .  A
C861        C862   1.398       .  A
C861        H865   1.084       .  S
C862        O866   1.372       .  S
O864        H868   0.993       .  S
O866        H867   0.991       .  S
C869        C870   1.403       .  A
C869        C874   1.414       .  A
C870        C871   1.401   1_655  A
C870        H875   1.083       .  S
C871        C872   1.415       .  A
C871        O876   1.371       .  S
C872        C873   1.403       .  A
C873        C874   1.401   1_455  A
C873        H877   1.083       .  S
C874        O878   1.373       .  S
O876        H880   0.992       .  S
O878        H879   0.992       .  S
C881        C882   1.403       .  A
C881       C1814   1.407       .  A
C882       C1811   1.399       .  A
C882        H887   1.083       .  S
C883        C884   1.411   1_565  A
C883       C1810   1.400       .  A
C883        O888   1.371       .  S
C884        C885   1.409       .  A
C885        C886   1.405       .  A
C885        H889   1.083       .  S
C886       C1809   1.407   1_545  A
C886       O1818   1.372       .  S
O888        H892   0.991       .  S
O890       C1814   1.372       .  S
O890       H1819   0.991       .  S
H891       O1818   0.991       .  S
C893        C894   1.401       .  A
C893        C898   1.411       .  A
C894        C895   1.395       .  A
C894        H899   1.084       .  S
C895        C896   1.410       .  A
C895        O900   1.371       .  S
C896        C897   1.402       .  A
C897        C898   1.398       .  A
C897        H901   1.084       .  S
C898        O902   1.371       .  S
O900        H904   0.991       .  S
O902        H903   0.992       .  S
C905        C940   1.483       .  S
C905        C906   1.402       .  A
C905        C910   1.410       .  A
C906        C907   1.397       .  A
C906        H911   1.084       .  S
C907        C908   1.415       .  A
C907        O912   1.372       .  S
C908        C909   1.410       .  A
C909        C910   1.406       .  A
C909        H913   1.083       .  S
C910       O1842   1.371       .  S
O912        H916   0.992       .  S
O914       C1838   1.371       .  S
O914        H915   0.991       .  S
C917        C918   1.410       .  A
C917        C922   1.415       .  A
C918        C919   1.408       .  A
C918        H923   1.083       .  S
C919        C920   1.410       .  A
C919        O924   1.371       .  S
C920        C921   1.404       .  A
C921        C922   1.403       .  A
C921        H925   1.084       .  S
C922        O926   1.371       .  S
O924        H928   0.991       .  S
O926        H927   0.992       .  S
O929       Cr947   1.998       .  S
O929        C937   1.265       .  A
O930       Cr947   1.968       .  S
O930        C931   1.262       .  A
C931        O932   1.272       .  A
C931       C1785   1.481       .  S
O932       Cr948   2.023       .  S
O933       Cr948   1.972       .  S
O933        C934   1.258       .  A
C934        O935   1.270       .  A
C934       C1845   1.498       .  S
O935       Cr949   2.032       .  S
O936       Cr949   1.989       .  S
O936        C937   1.265       .  A
C937       C1797   1.484       .  S
O938       Cr947   1.985       .  S
O938        C946   1.265       .  A
O939       Cr947   2.008   1_545  S
O939        C940   1.264       .  A
C940        O941   1.257   1_545  A
O941       Cr948   1.981       .  S
O942       Cr948   2.015       .  S
O942        C943   1.269       .  A
C943        O944   1.256       .  A
C943       C1821   1.471       .  S
O944       Cr949   1.960       .  S
O945       Cr949   2.012       .  S
O945        C946   1.269       .  A
C946       C1809   1.481       .  S
Cr947       O950   1.768       .  S
Cr948       O950   1.769       .  S
Cr949       O950   1.770       .  S
O951       Cr969   2.003       .  S
O951        C959   1.267       .  A
O952       Cr969   1.971       .  S
O952        C953   1.262       .  A
C953        O954   1.270       .  A
C953       C1728   1.488       .  S
O954       Cr970   2.019       .  S
O955       Cr970   1.962       .  S
O955        C956   1.256       .  A
C956        O957   1.267       .  A
C956       C1764   1.488       .  S
O957       Cr971   2.027       .  S
O958       Cr971   1.981       .  S
O958        C959   1.262       .  A
C959       C1740   1.477       .  S
O960       Cr969   1.980       .  S
O960        C968   1.264       .  A
O961       Cr969   2.015       .  S
O961        C962   1.265       .  A
C962        O963   1.258       .  A
C962       C1773   1.483       .  S
O963       Cr970   1.979       .  S
O964       Cr970   2.018       .  S
O964        C965   1.269       .  A
C965        O966   1.257       .  A
C965       C1749   1.478       .  S
O966       Cr971   1.957       .  S
O967       Cr971   2.016       .  S
O967        C968   1.269       .  A
C968       C1812   1.488       .  S
Cr969       O972   1.764       .  S
Cr970       O972   1.763       .  S
Cr971       O972   1.774       .  S
O973       Cr991   2.019       .  S
O973        C981   1.274       .  A
O974       Cr991   1.988       .  S
O974        C975   1.261       .  A
C975        O976   1.259       .  A
C975       C1800   1.487       .  S
O976       Cr992   1.984       .  S
O977       Cr992   2.003       .  S
O977        C978   1.266       .  A
C978        O979   1.259       .  A
C978       C1701   1.474       .  S
O979       Cr993   1.975       .  S
O980       Cr993   1.971       .  S
O980        C981   1.265       .  A
C981       C1665   1.488       .  S
O982       Cr991   2.001   1_545  S
O982        C990   1.258       .  A
O983       Cr991   2.012       .  S
O983        C984   1.268       .  A
C984        O985   1.262       .  A
C984       C1692   1.496       .  S
O985       Cr992   1.979       .  S
O986       Cr992   1.970       .  S
O986        C987   1.258       .  A
C987        O988   1.269       .  A
C987       C1677   1.472       .  S
O988       Cr993   2.003       .  S
O989       Cr993   1.985       .  S
O989        C990   1.252   1_565  A
Cr991       O994   1.779       .  S
Cr992       O994   1.780       .  S
Cr993       O994   1.776       .  S
O995      Cr1013   1.961       .  S
O995       C1003   1.260       .  A
O996      Cr1013   2.011       .  S
O996        C997   1.268       .  A
C997        O998   1.260       .  A
C997       C1737   1.479       .  S
O998      Cr1014   1.974       .  S
O999      Cr1014   2.043       .  S
O999       C1000   1.272       .  A
C1000      O1001   1.257       .  A
C1000      C1644   1.497       .  S
O1001     Cr1015   1.964       .  S
O1002     Cr1015   2.016       .  S
O1002      C1003   1.270       .  A
C1003      C1617   1.480       .  S
O1004     Cr1013   2.017       .  S
O1004      C1012   1.267       .  A
O1005     Cr1013   1.972       .  S
O1005      C1006   1.261       .  A
C1006      O1007   1.273       .  A
C1006      C1689   1.494       .  S
O1007     Cr1014   2.029       .  S
O1008     Cr1014   1.947       .  S
O1008      C1009   1.252       .  A
C1009      O1010   1.268       .  A
C1009      C1656   1.469       .  S
O1010     Cr1015   2.009       .  S
O1011     Cr1015   1.977       .  S
O1011      C1012   1.257       .  A
C1012      C1632   1.483       .  S
Cr1013     O1016   1.761       .  S
Cr1014     O1016   1.767       .  S
Cr1015     O1016   1.762       .  S
O1017     Cr1035   2.015       .  S
O1017      C1025   1.271       .  A
O1018     Cr1035   1.959       .  S
O1018      C1019   1.260       .  A
C1019      O1020   1.270       .  A
C1019      C1581   1.478       .  S
O1020     Cr1036   2.009       .  S
O1021     Cr1036   1.967       .  S
O1021      C1022   1.256       .  A
C1022      O1023   1.266       .  A
C1022      C1716   1.488       .  S
O1023     Cr1037   2.025       .  S
O1024     Cr1037   1.985       .  S
O1024      C1025   1.265       .  A
C1025      C1593   1.490       .  S
O1026     Cr1035   1.977       .  S
O1026      C1034   1.262       .  A
O1027     Cr1035   2.018       .  S
O1027      C1028   1.266       .  A
C1028      O1029   1.256       .  A
C1028      C1704   1.486       .  S
O1029     Cr1036   1.978       .  S
O1030     Cr1036   2.008       .  S
O1030      C1031   1.269       .  A
C1031      O1032   1.257       .  A
C1031      C1653   1.470       .  S
O1032     Cr1037   1.952       .  S
O1033     Cr1037   2.017       .  S
O1033      C1034   1.266       .  A
C1034      C1605   1.471       .  S
Cr1035     O1038   1.759       .  S
Cr1036     O1038   1.765       .  S
Cr1037     O1038   1.771       .  S
O1039     Cr1057   2.006       .  S
O1039      C1047   1.267       .  A
O1040     Cr1057   1.962       .  S
O1040      C1041   1.263       .  A
C1041      O1042   1.275       .  A
C1041      C1557   1.488       .  S
O1042     Cr1058   2.031       .  S
O1043     Cr1058   1.964       .  S
O1043      C1044   1.257       .  A
C1044      O1045   1.267       .  A
C1044      C1629   1.491       .  S
O1045     Cr1059   2.022       .  S
O1046     Cr1059   1.983       .  S
O1046      C1047   1.261       .  A
C1047      C1569   1.484       .  S
O1048     Cr1057   1.972       .  S
O1048      C1056   1.262       .  A
O1049     Cr1057   2.013       .  S
O1049      C1050   1.264       .  A
C1050      O1051   1.258       .  A
C1050      C1641   1.490       .  S
O1051     Cr1058   1.994       .  S
O1052     Cr1058   2.021       .  S
O1052      C1053   1.271       .  A
C1053      O1054   1.254       .  A
C1053      C1680   1.472       .  S
O1054     Cr1059   1.945       .  S
O1055     Cr1059   2.020       .  S
O1055      C1056   1.269       .  A
C1056      C1608   1.467       .  S
Cr1057     O1060   1.764       .  S
Cr1058     O1060   1.762       .  S
Cr1059     O1060   1.776       .  S
O1061     Cr1079   1.971       .  S
O1061      C1069   1.263       .  A
O1062     Cr1079   2.008       .  S
O1062      C1063   1.268       .  A
C1063      O1064   1.264       .  A
C1063      C1596   1.490       .  S
O1064     Cr1080   1.990       .  S
O1065     Cr1080   2.024       .  S
O1065      C1066   1.267       .  A
C1066      O1067   1.255       .  A
C1066      C1836   1.490       .  S
O1067     Cr1081   1.964       .  S
O1068     Cr1081   2.018       .  S
O1068      C1069   1.271       .  A
C1069      C1536   1.488       .  S
O1070     Cr1079   2.021       .  S
O1070      C1078   1.267       .  A
O1071     Cr1079   1.982       .  S
O1071      C1072   1.264       .  A
C1072      O1073   1.269       .  A
C1072      C1548   1.484       .  S
O1073     Cr1080   2.010       .  S
O1074     Cr1080   1.958       .  S
O1074      C1075   1.257       .  A
C1075      O1076   1.269       .  A
C1075      C1752   1.478       .  S
O1076     Cr1081   2.016       .  S
O1077     Cr1081   1.988       .  S
O1077      C1078   1.259       .  A
C1078      C1848   1.490       .  S
Cr1079     O1082   1.764       .  S
Cr1080     O1082   1.776       .  S
Cr1081     O1082   1.764       .  S
O1083     Cr1101   1.969       .  S
O1083      C1091   1.263       .  A
O1084     Cr1101   1.998       .  S
O1084      C1085   1.265       .  A
C1085      O1086   1.263       .  A
C1085      C1572   1.486       .  S
O1086     Cr1102   1.990       .  S
O1087     Cr1102   2.013       .  S
O1087      C1088   1.265       .  A
C1088      O1089   1.258       .  A
C1088      C1776   1.491       .  S
O1089     Cr1103   1.972       .  S
O1090     Cr1103   2.017       .  S
O1090      C1091   1.272       .  A
C1091      C1521   1.486       .  S
O1092     Cr1101   1.997       .  S
O1092      C1100   1.262       .  A
O1093     Cr1101   1.984       .  S
O1093      C1094   1.264       .  A
C1094      O1095   1.268       .  A
C1094      C1545   1.481       .  S
O1095     Cr1102   2.009       .  S
O1096     Cr1102   1.956       .  S
O1096      C1097   1.257       .  A
C1097      O1098   1.269       .  A
C1097      C1824   1.471       .  S
O1098     Cr1103   2.018       .  S
O1099     Cr1103   1.990       .  S
O1099      C1100   1.259       .  A
C1100      C1761   1.489       .  S
Cr1101     O1104   1.765       .  S
Cr1102     O1104   1.771       .  S
Cr1103     O1104   1.771       .  S
O1105     Cr1123   1.969       .  S
O1105      C1113   1.263       .  A
O1106     Cr1123   2.009       .  S
O1106      C1107   1.268       .  A
C1107      O1108   1.264       .  A
C1107      C1461   1.489       .  S
O1108     Cr1124   1.989       .  S
O1109     Cr1124   2.021       .  S
O1109      C1110   1.267       .  A
C1110      O1111   1.258       .  A
C1110      C1512   1.493       .  S
O1111     Cr1125   1.970       .  S
O1112     Cr1125   2.022       .  S
O1112      C1113   1.271       .  A
C1113      C1788   1.481       .  S
O1114     Cr1123   2.013   1_545  S
O1114      C1122   1.265   1_545  A
O1115     Cr1123   1.985       .  S
O1115      C1116   1.264       .  A
C1116      O1117   1.268       .  A
C1116      C1473   1.483       .  S
O1117     Cr1124   2.010       .  S
O1118     Cr1124   1.960       .  S
O1118      C1119   1.256       .  A
C1119      O1120   1.269       .  A
C1119      C1485   1.476       .  S
O1120     Cr1125   2.017       .  S
O1121     Cr1125   1.979       .  S
O1121      C1122   1.256       .  A
Cr1123     O1126   1.767       .  S
Cr1124     O1126   1.771       .  S
Cr1125     O1126   1.770       .  S
O1127     Cr1145   1.971       .  S
O1127      C1135   1.263       .  A
O1128     Cr1145   1.992       .  S
O1128      C1129   1.264       .  A
C1129      O1130   1.264       .  A
C1129      C1413   1.485       .  S
O1130     Cr1146   1.994       .  S
O1131     Cr1146   2.024       .  S
O1131      C1132   1.267       .  A
C1132      O1133   1.257       .  A
C1132      C1440   1.492       .  S
O1133     Cr1147   1.965       .  S
O1134     Cr1147   2.020       .  S
O1134      C1135   1.272       .  A
C1135      C1725   1.488       .  S
O1136     Cr1145   2.004       .  S
O1136      C1144   1.262       .  A
O1137     Cr1145   1.983       .  S
O1137      C1138   1.265       .  A
C1138      O1139   1.269       .  A
C1138      C1476   1.485       .  S
O1139     Cr1146   2.012       .  S
O1140     Cr1146   1.958       .  S
O1140      C1141   1.257       .  A
C1141      O1142   1.269       .  A
C1141      C1425   1.474       .  S
O1142     Cr1147   2.016       .  S
O1143     Cr1147   1.984       .  S
O1143      C1144   1.258       .  A
C1144      C1449   1.483       .  S
Cr1145     O1148   1.763       .  S
Cr1146     O1148   1.773       .  S
Cr1147     O1148   1.765       .  S
O1149     Cr1167   2.010       .  S
O1149      C1157   1.268       .  A
O1150     Cr1167   1.975       .  S
O1150      C1151   1.264       .  A
C1151      O1152   1.272       .  A
C1151      C1668   1.482       .  S
O1152     Cr1168   2.016       .  S
O1153     Cr1168   1.967       .  S
O1153      C1154   1.256       .  A
C1154      O1155   1.269       .  A
C1154      C1389   1.494       .  S
O1155     Cr1169   2.027       .  S
O1156     Cr1169   1.987       .  S
O1156      C1157   1.264       .  A
C1157      C1464   1.488       .  S
O1158     Cr1167   1.991       .  S
O1158      C1166   1.265       .  A
O1159     Cr1167   2.011   1_545  S
O1159      C1160   1.264       .  A
C1160      O1161   1.257   1_545  A
O1161     Cr1168   1.978       .  S
O1162     Cr1168   2.022       .  S
O1162      C1163   1.269       .  A
C1163      O1164   1.255       .  A
C1163      C1368   1.477       .  S
O1164     Cr1169   1.956       .  S
O1165     Cr1169   2.011       .  S
O1165      C1166   1.268       .  A
C1166      C1377   1.486       .  S
Cr1167     O1170   1.771       .  S
Cr1168     O1170   1.769       .  S
Cr1169     O1170   1.772       .  S
O1171     Cr1189   2.003       .  S
O1171      C1179   1.268       .  A
O1172     Cr1189   1.966       .  S
O1172      C1173   1.263       .  A
C1173      O1174   1.269       .  A
C1173      C1620   1.480       .  S
O1174     Cr1190   2.013       .  S
O1175     Cr1190   1.969       .  S
O1175      C1176   1.257       .  A
C1176      O1177   1.266       .  A
C1176      C1341   1.490       .  S
O1177     Cr1191   2.020       .  S
O1178     Cr1191   1.984       .  S
O1178      C1179   1.261       .  A
C1179      C1416   1.484       .  S
O1180     Cr1189   1.986       .  S
O1180      C1188   1.265       .  A
O1181     Cr1189   2.009       .  S
O1181      C1182   1.264       .  A
C1182      O1183   1.257       .  A
C1182      C1329   1.479       .  S
O1183     Cr1190   1.979       .  S
O1184     Cr1190   2.008       .  S
O1184      C1185   1.268       .  A
C1185      O1186   1.256       .  A
C1185      C1353   1.475       .  S
O1186     Cr1191   1.954       .  S
O1187     Cr1191   2.014       .  S
O1187      C1188   1.269       .  A
C1188      C1380   1.489       .  S
Cr1189     O1192   1.763       .  S
Cr1190     O1192   1.764       .  S
Cr1191     O1192   1.770       .  S
O1193     Cr1211   1.964       .  S
O1193      C1201   1.261       .  A
O1194     Cr1211   2.009       .  S
O1194      C1195   1.268       .  A
C1195      O1196   1.260       .  A
C1195      C1305   1.480       .  S
O1196     Cr1212   1.976       .  S
O1197     Cr1212   2.013       .  S
O1197      C1198   1.266       .  A
C1198      O1199   1.258       .  A
C1198      C1404   1.488       .  S
O1199     Cr1213   1.972       .  S
O1200     Cr1213   2.009       .  S
O1200      C1201   1.269       .  A
C1201      C1584   1.479       .  S
O1202     Cr1211   2.017       .  S
O1202      C1210   1.266       .  A
O1203     Cr1211   1.982       .  S
O1203      C1204   1.263       .  A
C1204      O1205   1.267       .  A
C1204      C1317   1.480       .  S
O1205     Cr1212   2.007       .  S
O1206     Cr1212   1.949       .  S
O1206      C1207   1.255       .  A
C1207      O1208   1.268       .  A
C1207      C1356   1.476       .  S
O1208     Cr1213   2.015       .  S
O1209     Cr1213   1.986       .  S
O1209      C1210   1.259       .  A
C1210      C1392   1.486       .  S
Cr1211     O1214   1.765       .  S
Cr1212     O1214   1.767       .  S
Cr1213     O1214   1.765       .  S
O1215     Cr1233   1.971       .  S
O1215      C1223   1.263       .  A
O1216     Cr1233   2.006       .  S
O1216      C1217   1.267       .  A
C1217      O1218   1.263       .  A
C1217      C1293   1.485       .  S
O1218     Cr1234   1.987       .  S
O1219     Cr1234   2.017       .  S
O1219      C1220   1.267       .  A
C1220      O1221   1.256       .  A
C1220      C1332   1.487       .  S
O1221     Cr1235   1.965       .  S
O1222     Cr1235   2.019       .  S
O1222      C1223   1.272       .  A
C1223      C1560   1.487       .  S
O1224     Cr1233   2.012       .  S
O1224      C1232   1.264       .  A
O1225     Cr1233   1.983       .  S
O1225      C1226   1.264       .  A
C1226      O1227   1.267       .  A
C1226      C1320   1.482       .  S
O1227     Cr1234   2.007       .  S
O1228     Cr1234   1.957       .  S
O1228      C1229   1.256       .  A
C1229      O1230   1.269       .  A
C1229      C1365   1.477       .  S
O1230     Cr1235   2.021       .  S
O1231     Cr1235   1.982       .  S
O1231      C1232   1.258       .  A
C1232      C1344   1.482       .  S
Cr1233     O1236   1.764       .  S
Cr1234     O1236   1.772       .  S
Cr1235     O1236   1.765       .  S
O1237     Cr1255   1.999       .  S
O1237      C1245   1.267       .  A
O1238     Cr1255   1.970       .  S
O1238      C1239   1.262       .  A
C1239      O1240   1.271       .  A
C1239      C1533   1.487       .  S
O1240     Cr1256   2.016       .  S
O1241     Cr1256   1.969       .  S
O1241      C1242   1.257       .  A
C1242      O1243   1.265       .  A
C1242      C1500   1.488       .  S
O1243     Cr1257   2.014       .  S
O1244     Cr1257   1.983       .  S
O1244      C1245   1.262       .  A
C1245      C1308   1.480       .  S
O1246     Cr1255   1.983       .  S
O1246      C1254   1.264       .  A
O1247     Cr1255   2.010       .  S
O1247      C1248   1.264       .  A
C1248      O1249   1.259       .  A
C1248      C1509   1.488       .  S
O1249     Cr1256   1.985       .  S
O1250     Cr1256   2.017       .  S
O1250      C1251   1.270       .  A
C1251      O1252   1.256       .  A
C1251      C1428   1.475       .  S
O1252     Cr1257   1.960       .  S
O1253     Cr1257   2.002       .  S
O1253      C1254   1.266       .  A
C1254      C1281   1.477       .  S
Cr1255     O1258   1.765       .  S
Cr1256     O1258   1.766       .  S
Cr1257     O1258   1.773       .  S
O1259     Cr1277   2.004       .  S
O1259      C1267   1.267       .  A
O1260     Cr1277   1.961       .  S
O1260      C1261   1.261       .  A
C1261      O1262   1.272       .  A
C1261      C1524   1.486       .  S
O1262     Cr1278   2.024       .  S
O1263     Cr1278   1.967       .  S
O1263      C1264   1.258       .  A
C1264      O1265   1.267       .  A
C1264      C1452   1.491       .  S
O1265     Cr1279   2.019       .  S
O1266     Cr1279   1.988       .  S
O1266      C1267   1.263       .  A
C1267      C1296   1.486       .  S
O1268     Cr1277   1.972       .  S
O1268      C1276   1.262       .  A
O1269     Cr1277   2.012       .  S
O1269      C1270   1.265       .  A
C1270      O1271   1.257       .  A
C1270      C1437   1.487       .  S
O1271     Cr1278   1.982       .  S
O1272     Cr1278   2.018       .  S
O1272      C1273   1.269       .  A
C1273      O1274   1.256       .  A
C1273      C1488   1.476       .  S
O1274     Cr1279   1.959       .  S
O1275     Cr1279   2.008       .  S
O1275      C1276   1.268       .  A
C1276      C1284   1.476       .  S
Cr1277     O1280   1.765       .  S
Cr1278     O1280   1.766       .  S
Cr1279     O1280   1.771       .  S
C1281      C1282   1.406   1_554  A
C1281      C1286   1.407       .  A
C1282      C1283   1.397       .  A
C1282      H1287   1.083       .  S
C1283      C1284   1.408       .  A
C1283      O1288   1.372       .  S
C1284      C1285   1.406       .  A
C1285      C1286   1.400   1_556  A
C1285      H1289   1.083       .  S
C1286      O1290   1.372       .  S
O1288      H1292   0.992       .  S
O1290      H1291   0.992       .  S
C1293      C1294   1.407       .  A
C1293      C1298   1.410       .  A
C1294      C1295   1.407       .  A
C1294      H1299   1.083       .  S
C1295      C1296   1.412       .  A
C1295      O1300   1.371       .  S
C1296      C1297   1.405       .  A
C1297      C1298   1.396       .  A
C1297      H1301   1.084       .  S
C1298      O1302   1.372       .  S
O1300      H1304   0.992       .  S
O1302      H1303   0.991       .  S
C1305      C1306   1.407       .  A
C1305      C1310   1.408       .  A
C1306      C1307   1.404       .  A
C1306      H1311   1.083       .  S
C1307      C1308   1.411       .  A
C1307      O1312   1.371       .  S
C1308      C1309   1.404       .  A
C1309      C1310   1.395       .  A
C1309      H1313   1.084       .  S
C1310      O1314   1.372       .  S
O1312      H1316   0.992       .  S
O1314      H1315   0.992       .  S
C1317      C1318   1.406   1_554  A
C1317      C1322   1.408       .  A
C1318      C1319   1.399       .  A
C1318      H1323   1.084   1_556  S
C1319      C1320   1.408       .  A
C1319      O1324   1.371       .  S
C1320      C1321   1.408       .  A
C1321      C1322   1.402   1_556  A
C1321      H1325   1.084       .  S
C1322      O1326   1.372       .  S
O1324      H1328   0.992       .  S
O1326      H1327   0.992       .  S
C1329      C1334   1.408       .  A
C1330      C1331   1.399       .  A
C1330      H1335   1.084       .  S
C1331      C1332   1.413       .  A
C1331      O1336   1.373       .  S
C1332      C1333   1.409       .  A
C1333      H1337   1.083       .  S
C1334      O1338   1.371       .  S
O1336      H1340   0.992       .  S
O1338      H1339   0.992       .  S
C1341      C1342   1.408       .  A
C1341      C1346   1.415       .  A
C1342      C1343   1.399       .  A
C1342      H1347   1.084       .  S
C1343      C1344   1.409       .  A
C1343      O1348   1.372       .  S
C1344      C1345   1.403       .  A
C1345      C1346   1.404       .  A
C1345      H1349   1.084       .  S
C1346      O1350   1.371       .  S
O1348      H1352   0.992       .  S
O1350      H1351   0.992       .  S
C1353      C1354   1.408   1_556  A
C1353      C1358   1.408       .  A
C1354      C1355   1.396       .  A
C1354      H1359   1.084       .  S
C1355      C1356   1.409       .  A
C1355      O1360   1.372       .  S
C1356      C1357   1.407   1_554  A
C1357      C1358   1.392       .  A
C1357      H1361   1.083       .  S
C1358      O1362   1.372       .  S
O1360      H1364   0.992       .  S
O1362      H1363   0.992       .  S
C1365      C1366   1.407       .  A
C1365      C1370   1.408       .  A
C1366      C1367   1.398   1_556  A
C1366      H1371   1.084   1_556  S
C1367      C1368   1.408       .  A
C1367      O1372   1.372       .  S
C1368      C1369   1.407   1_554  A
C1369      C1370   1.398       .  A
C1369      H1373   1.084       .  S
C1370      O1374   1.372       .  S
O1372      H1376   0.991       .  S
O1374      H1375   0.991       .  S
C1377      C1378   1.406       .  A
C1378      H1383   1.084       .  S
C1379      C1380   1.411       .  A
C1380      C1381   1.409       .  A
C1381      C1382   1.405   1_556  A
C1381      H1385   1.084       .  S
C1382      O1386   1.372       .  S
O1384      H1388   0.992       .  S
O1386      H1387   0.992       .  S
C1389      C1390   1.409       .  A
C1389      C1394   1.415       .  A
C1390      C1391   1.405       .  A
C1390      H1395   1.083       .  S
C1391      C1392   1.408       .  A
C1391      O1396   1.371       .  S
C1392      C1393   1.404       .  A
C1393      C1394   1.403       .  A
C1393      H1397   1.084       .  S
C1394      O1398   1.373       .  S
O1396      H1400   0.992       .  S
O1398      H1399   0.992       .  S
C1401      C1402   1.402       .  A
C1401      C1406   1.410       .  A
C1402      C1403   1.402       .  A
C1403      C1404   1.415       .  A
C1403      O1408   1.371       .  S
C1404      C1405   1.407       .  A
C1405      C1406   1.399       .  A
C1405      H1409   1.084       .  S
C1406      O1410   1.372       .  S
O1408      H1412   0.991       .  S
O1410      H1411   0.992       .  S
C1413      C1414   1.406       .  A
C1413      C1418   1.413       .  A
C1414      C1415   1.406   1_655  A
C1414      H1419   1.083       .  S
C1415      C1416   1.413       .  A
C1415      O1420   1.371       .  S
C1416      C1417   1.403       .  A
C1417      C1418   1.393   1_455  A
C1417      H1421   1.084       .  S
C1418      O1422   1.372       .  S
O1420      H1424   0.992       .  S
O1422      H1423   0.992       .  S
C1425      C1426   1.403       .  A
C1425      C1430   1.411       .  A
C1426      C1427   1.398       .  A
C1426      H1431   1.084       .  S
C1427      C1428   1.411   1_556  A
C1427      O1432   1.372       .  S
C1428      C1429   1.403       .  A
C1429      C1430   1.397   1_554  A
C1429      H1433   1.084       .  S
C1430      O1434   1.372   1_556  S
O1432      H1436   0.992       .  S
O1434      H1435   0.992       .  S
C1437      C1438   1.406       .  A
C1437      C1442   1.410       .  A
C1438      C1439   1.406       .  A
C1438      H1443   1.084       .  S
C1439      C1440   1.415       .  A
C1439      O1444   1.372       .  S
C1440      C1441   1.408       .  A
C1441      C1442   1.398       .  A
C1441      H1445   1.083       .  S
C1442      O1446   1.372       .  S
O1444      H1448   0.992       .  S
O1446      H1447   0.992       .  S
C1449      C1450   1.403       .  A
C1450      H1455   1.084       .  S
C1451      C1452   1.415       .  A
C1451      O1456   1.371       .  S
C1452      C1453   1.407       .  A
C1453      C1454   1.400       .  A
C1453      H1457   1.084       .  S
C1454      O1458   1.372       .  S
O1458      H1459   0.992       .  S
C1461      C1462   1.406       .  A
C1461      C1466   1.412       .  A
C1462      C1463   1.401   1_655  A
C1462      H1467   1.084       .  S
C1463      C1464   1.411       .  A
C1463      O1468   1.373       .  S
C1464      C1465   1.407       .  A
C1465      C1466   1.406   1_455  A
C1465      H1469   1.083       .  S
C1466      O1470   1.371       .  S
O1468      H1472   0.992       .  S
O1470      H1471   0.992       .  S
C1473      C1474   1.406   1_554  A
C1474      H1479   1.083       .  S
C1475      C1476   1.409       .  A
C1475      O1480   1.371       .  S
C1476      C1477   1.407       .  A
C1477      C1478   1.403   1_556  A
C1477      H1481   1.083       .  S
C1478      O1482   1.372       .  S
O1482      H1483   0.992       .  S
C1485      C1486   1.403       .  A
C1485      C1490   1.412   1_554  A
C1486      C1487   1.398       .  A
C1486      H1491   1.084       .  S
C1487      C1488   1.412   1_554  A
C1487      O1492   1.371       .  S
C1488      C1489   1.402       .  A
C1489      C1490   1.396       .  A
C1489      H1493   1.084       .  S
C1490      O1494   1.371       .  S
O1492      H1496   0.991       .  S
O1494      H1495   0.992       .  S
C1497      C1498   1.404       .  A
C1497      C1502   1.408       .  A
C1498      C1499   1.404       .  A
C1499      C1500   1.415       .  A
C1499      O1504   1.372       .  S
C1500      C1501   1.406       .  A
C1501      C1502   1.398       .  A
C1501      H1505   1.083       .  S
C1502      O1506   1.372       .  S
O1504      H1508   0.992       .  S
O1506      H1507   0.992       .  S
C1509      C1510   1.405       .  A
C1509      C1514   1.411       .  A
C1510      C1511   1.406       .  A
C1510      H1515   1.083       .  S
C1511      C1512   1.415       .  A
C1511      O1516   1.372       .  S
C1512      C1513   1.408       .  A
C1513      C1514   1.400       .  A
C1513      H1517   1.083       .  S
C1514      O1518   1.372       .  S
O1516      H1520   0.992       .  S
O1518      H1519   0.992       .  S
C1521      C1522   1.407       .  A
C1521      C1526   1.412       .  A
C1522      C1523   1.401       .  A
C1522      H1527   1.083       .  S
C1523      C1524   1.411       .  A
C1523      O1528   1.371       .  S
C1524      C1525   1.407       .  A
C1525      C1526   1.397       .  A
C1525      H1529   1.083       .  S
C1526      O1530   1.372       .  S
O1528      H1532   0.992       .  S
O1530      H1531   0.992       .  S
C1533      C1534   1.406       .  A
C1533      C1538   1.413       .  A
C1534      C1535   1.400       .  A
C1534      H1539   1.083       .  S
C1535      C1536   1.412       .  A
C1535      O1540   1.371       .  S
C1536      C1537   1.406       .  A
C1537      C1538   1.399       .  A
C1537      H1541   1.083       .  S
C1538      O1542   1.372       .  S
O1540      H1544   0.992       .  S
O1542      H1543   0.992       .  S
C1545      C1546   1.405       .  A
C1545      C1550   1.408       .  A
C1546      C1547   1.400       .  A
C1546      H1551   1.083       .  S
C1547      C1548   1.410       .  A
C1547      O1552   1.371       .  S
C1548      C1549   1.408       .  A
C1549      C1550   1.403       .  A
C1549      H1553   1.084       .  S
C1550      O1554   1.372       .  S
O1552      H1556   0.991       .  S
O1554      H1555   0.992       .  S
C1557      C1558   1.407       .  A
C1557      C1562   1.411       .  A
C1558      C1559   1.398       .  A
C1558      H1563   1.084       .  S
C1559      C1560   1.412       .  A
C1559      O1564   1.372       .  S
C1560      C1561   1.407       .  A
C1561      C1562   1.402       .  A
C1561      H1565   1.083       .  S
C1562      O1566   1.371       .  S
O1564      H1568   0.992       .  S
O1566      H1567   0.992       .  S
C1569      C1570   1.407       .  A
C1569      C1574   1.410       .  A
C1570      C1571   1.406       .  A
C1570      H1575   1.083       .  S
C1571      C1572   1.411       .  A
C1571      O1576   1.371       .  S
C1572      C1573   1.406       .  A
C1573      C1574   1.395       .  A
C1573      H1577   1.084       .  S
C1574      O1578   1.372       .  S
O1576      H1580   0.992       .  S
O1578      H1579   0.992       .  S
C1581      C1582   1.404       .  A
C1581      C1586   1.412       .  A
C1582      C1583   1.396       .  A
C1582      H1587   1.083       .  S
C1583      C1584   1.411       .  A
C1583      O1588   1.371       .  S
C1584      C1585   1.405       .  A
C1585      C1586   1.395       .  A
C1585      H1589   1.084       .  S
C1586      O1590   1.372       .  S
O1588      H1592   0.992       .  S
O1590      H1591   0.992       .  S
C1593      C1594   1.408       .  A
C1593      C1598   1.411       .  A
C1594      C1595   1.407       .  A
C1594      H1599   1.083       .  S
C1595      C1596   1.413       .  A
C1595      O1600   1.371       .  S
C1596      C1597   1.405       .  A
C1597      C1598   1.397       .  A
C1597      H1601   1.084       .  S
C1598      O1602   1.372       .  S
O1600      H1604   0.992       .  S
O1602      H1603   0.991       .  S
C1605      C1606   1.400       .  A
C1605      C1610   1.410       .  A
C1606      C1607   1.396       .  A
C1606      H1611   1.084       .  S
C1607      C1608   1.406       .  A
C1607      O1612   1.373       .  S
C1608      C1609   1.402       .  A
C1609      C1610   1.405       .  A
C1609      H1613   1.083       .  S
C1610      O1614   1.371       .  S
O1612      H1616   0.989       .  S
O1614      H1615   0.992       .  S
C1617      C1618   1.405       .  A
C1617      C1622   1.412       .  A
C1618      C1619   1.400       .  A
C1618      H1623   1.083       .  S
C1619      C1620   1.412       .  A
C1619      O1624   1.371       .  S
C1620      C1621   1.404       .  A
C1621      C1622   1.394       .  A
C1621      H1625   1.084       .  S
C1622      O1626   1.372       .  S
O1624      H1628   0.992       .  S
O1626      H1627   0.992       .  S
C1629      C1630   1.407       .  A
C1629      C1634   1.415       .  A
C1630      C1631   1.398       .  A
C1630      H1635   1.083       .  S
C1631      O1636   1.372       .  S
C1632      C1633   1.406       .  A
C1633      H1637   1.084       .  S
C1634      O1638   1.372       .  S
O1636      H1640   0.992       .  S
C1641      C1642   1.403       .  A
C1641      C1646   1.411       .  A
C1642      C1643   1.400       .  A
C1642      H1647   1.084       .  S
C1643      C1644   1.416       .  A
C1643      O1648   1.372       .  S
C1644      C1645   1.410       .  A
C1645      C1646   1.410       .  A
C1645      H1649   1.083       .  S
C1646      O1650   1.371       .  S
O1648      H1652   0.992       .  S
O1650      H1651   0.991       .  S
C1653      C1654   1.403       .  A
C1653      C1658   1.412       .  A
C1654      C1655   1.393       .  A
C1654      H1659   1.084       .  S
C1655      C1656   1.413       .  A
C1655      O1660   1.373       .  S
C1656      C1657   1.401       .  A
C1657      C1658   1.390       .  A
C1657      H1661   1.084       .  S
C1658      O1662   1.372       .  S
O1660      H1664   0.992       .  S
O1662      H1663   0.992       .  S
C1665      C1666   1.407       .  A
C1665      C1670   1.413       .  A
C1666      C1667   1.402       .  A
C1666      H1671   1.083       .  S
C1667      C1668   1.410       .  A
C1667      O1672   1.372       .  S
C1668      C1669   1.403       .  A
C1669      C1670   1.400       .  A
C1669      H1673   1.084       .  S
C1670      O1674   1.372       .  S
O1672      H1676   0.992       .  S
O1674      H1675   0.992       .  S
C1677      C1678   1.398       .  A
C1677      C1682   1.416       .  A
C1678      C1679   1.400       .  A
C1678      H1683   1.084       .  S
C1679      C1680   1.416       .  A
C1679      O1684   1.372       .  S
C1680      C1681   1.395       .  A
C1681      C1682   1.392       .  A
C1681      H1685   1.084       .  S
C1682      O1686   1.373       .  S
O1684      H1688   0.992       .  S
O1686      H1687   0.992       .  S
C1689      C1690   1.407       .  A
C1689      C1694   1.414       .  A
C1690      C1691   1.406       .  A
C1690      H1695   1.083       .  S
C1691      O1696   1.371       .  S
C1692      C1693   1.407       .  A
C1693      H1697   1.083       .  S
O1696      H1700   0.992       .  S
O1698      H1699   0.992       .  S
C1701      C1702   1.404       .  A
C1701      C1706   1.408       .  A
C1702      C1703   1.398       .  A
C1702      H1707   1.084       .  S
C1703      C1704   1.410       .  A
C1703      O1708   1.372       .  S
C1704      C1705   1.408       .  A
C1705      C1706   1.407       .  A
C1705      H1709   1.083       .  S
C1706      O1710   1.371       .  S
O1708      H1712   0.992       .  S
O1710      H1711   0.991       .  S
C1713      C1714   1.400       .  A
C1713      C1718   1.407       .  A
C1714      C1715   1.406       .  A
C1715      C1716   1.416       .  A
C1715      O1720   1.373       .  S
C1716      C1717   1.407       .  A
C1717      C1718   1.401       .  A
C1717      H1721   1.084       .  S
C1718      O1722   1.372       .  S
O1720      H1724   0.991       .  S
O1722      H1723   0.992       .  S
C1725      C1726   1.406       .  A
C1725      C1730   1.413       .  A
C1726      C1727   1.402       .  A
C1726      H1731   1.083       .  S
C1727      C1728   1.413       .  A
C1727      O1732   1.371       .  S
C1728      C1729   1.406       .  A
C1729      C1730   1.399       .  A
C1729      H1733   1.083       .  S
C1730      O1734   1.372       .  S
O1732      H1736   0.992       .  S
O1734      H1735   0.992       .  S
C1737      C1738   1.405       .  A
C1737      C1742   1.408       .  A
C1738      C1739   1.401   1_455  A
C1738      H1743   1.084       .  S
C1739      C1740   1.409       .  A
C1739      O1744   1.371       .  S
C1740      C1741   1.405       .  A
C1741      C1742   1.398   1_655  A
C1741      H1745   1.084       .  S
C1742      O1746   1.372       .  S
O1744      H1748   0.992       .  S
O1746      H1747   0.992       .  S
C1749      C1750   1.407       .  A
C1749      C1754   1.409       .  A
C1750      C1751   1.397       .  A
C1750      H1755   1.084       .  S
C1751      C1752   1.410       .  A
C1751      O1756   1.372       .  S
C1752      C1753   1.407       .  A
C1753      C1754   1.397       .  A
C1753      H1757   1.084       .  S
C1754      O1758   1.372       .  S
O1756      H1760   0.992       .  S
O1758      H1759   0.992       .  S
C1761      C1762   1.408       .  A
C1761      C1766   1.413       .  A
C1762      C1763   1.408       .  A
C1762      H1767   1.083       .  S
C1763      C1764   1.412       .  A
C1763      O1768   1.371       .  S
C1764      C1765   1.405       .  A
C1765      C1766   1.395       .  A
C1765      H1769   1.084       .  S
C1766      O1770   1.372       .  S
O1768      H1772   0.991       .  S
O1770      H1771   0.992       .  S
C1773      C1774   1.403       .  A
C1774      H1779   1.084       .  S
C1775      C1776   1.416       .  A
C1775      O1780   1.372       .  S
C1776      C1777   1.407       .  A
C1777      C1778   1.400       .  A
C1777      H1781   1.083       .  S
C1778      O1782   1.372       .  S
O1782      H1783   0.992   1_565  S
C1785      C1786   1.405       .  A
C1785      C1790   1.410       .  A
C1786      C1787   1.403       .  A
C1786      H1791   1.084       .  S
C1787      C1788   1.411       .  A
C1787      O1792   1.372       .  S
C1788      C1789   1.404       .  A
C1789      C1790   1.398       .  A
C1789      H1793   1.084       .  S
C1790      O1794   1.372       .  S
O1792      H1796   0.993       .  S
O1794      H1795   0.991       .  S
C1797      C1798   1.403       .  A
C1797      C1802   1.414       .  A
C1798      C1799   1.401   1_655  A
C1798      H1803   1.083       .  S
C1799      C1800   1.415       .  A
C1799      O1804   1.371       .  S
C1800      C1801   1.403       .  A
C1801      C1802   1.401   1_455  A
C1801      H1805   1.083       .  S
C1802      O1806   1.373       .  S
O1804      H1808   0.992       .  S
O1806      H1807   0.992       .  S
C1809      C1810   1.403       .  A
C1810      H1815   1.083       .  S
C1811      C1812   1.411       .  A
C1811      O1816   1.371       .  S
C1812      C1813   1.409       .  A
C1813      C1814   1.405       .  A
C1813      H1817   1.083       .  S
O1816      H1820   0.991       .  S
C1821      C1822   1.401       .  A
C1821      C1826   1.411       .  A
C1822      C1823   1.395       .  A
C1822      H1827   1.084       .  S
C1823      C1824   1.410       .  A
C1823      O1828   1.371       .  S
C1824      C1825   1.403       .  A
C1825      C1826   1.398       .  A
C1825      H1829   1.084       .  S
C1826      O1830   1.371       .  S
O1828      H1832   0.991       .  S
O1830      H1831   0.992       .  S
C1833      C1834   1.402       .  A
C1833      C1838   1.410       .  A
C1834      C1835   1.397       .  A
C1834      H1839   1.084       .  S
C1835      C1836   1.414       .  A
C1835      O1840   1.372       .  S
C1836      C1837   1.410       .  A
C1837      C1838   1.406       .  A
C1837      H1841   1.083       .  S
O1840      H1844   0.992       .  S
O1842      H1843   0.991   1_545  S
C1845      C1846   1.410       .  A
C1845      C1850   1.415       .  A
C1846      C1847   1.408       .  A
C1846      H1851   1.083       .  S
C1847      C1848   1.410       .  A
C1847      O1852   1.371       .  S
C1848      C1849   1.404       .  A
C1849      C1850   1.403       .  A
C1849      H1853   1.084       .  S
C1850      O1854   1.371       .  S
O1852      H1856   0.991       .  S
O1854      H1855   0.992       .  S
