geometry optimzed in LAMMPS
_audit_creation_date              2020-12-01 
_audit_creation_method            'lammps2cif' 
_symmetry_space_group_name_H-M    'P1' 
_symmetry_Int_Tables_number       1 
_symmetry_cell_setting            triclinic 
loop_ 
_symmetry_equiv_pos_as_xyz 
  x,y,z 
_cell_length_a                    45.33196525 
_cell_length_b                    45.38590340143738 
_cell_length_c                    36.758375898197905 
_cell_angle_alpha                 91.44129634044283 
_cell_angle_beta                  87.36347767079876 
_cell_angle_gamma                 120.97084950369086 
loop_ 
_atom_site_label 
_atom_site_type_symbol 
_atom_site_fract_x 
_atom_site_fract_y 
_atom_site_fract_z 
_atom_site_charge 
In1        In  0.99617242  0.41724874  0.21315718     1.36900
C2          C  0.99211335  0.46886679  0.24165804     0.79100
O3          O  0.93900436  0.38793635  0.20872589    -0.59300
O4          O  0.95948764  0.37309911  0.25048713    -0.50200
C5          C  0.00395611  0.41682676  0.14113054     0.71800
O6          O  0.00831053  0.44234235  0.15955620    -0.45100
C7          C  0.05675594  0.43092570  0.23656811     0.76500
O8          O  0.99033504  0.46275729  0.20796789    -0.57000
O9          O  0.03276362  0.40037322  0.23117141    -0.47000
O10         O  0.99470436  0.44782871  0.26103882    -0.53400
C11         C  0.93306243  0.36941139  0.23609315     0.86700
O12         O  0.99630528  0.39052942  0.15958537    -0.55300
O13         O  0.04997883  0.45354198  0.22905811    -0.58600
In14       In  0.99964584  0.55666136  0.28352839     1.36900
C15         C  0.99311257  0.49921286  0.25679061     0.79100
O16         O  0.94302492  0.53625789  0.28602052    -0.59300
O17         O  0.97229185  0.56917342  0.24193602    -0.50200
C18         C  0.99664661  0.56328263  0.35545699     0.71800
O19         O  0.98860291  0.53555671  0.33930798    -0.45100
C20         C  0.06487784  0.59954634  0.26205608     0.76500
O21         O  0.99707526  0.50659849  0.29013344    -0.57000
O22         O  0.04266094  0.60845640  0.26214875    -0.47000
O23         O  0.99178845  0.52083060  0.23718359    -0.53400
C24         C  0.94295381  0.54951890  0.25647113     0.86700
O25         O  0.00566955  0.58859245  0.33471968    -0.55300
O26         O  0.05414142  0.57003265  0.27433317    -0.58600
In27       In  0.01004059  0.42727697  0.02969361     1.36900
C28         C  0.00968993  0.48054830  0.00343275     0.79100
O29         O  0.06719114  0.46086727  0.03088800    -0.59300
O30         O  0.04734409  0.41717790  0.99626813    -0.50200
C31         C  0.00676273  0.41890389  0.10134153     0.71800
O32         O  0.01228951  0.44574482  0.08599541    -0.45100
C33         C  0.94942025  0.37981324  0.00458353     0.76500
O34         O  0.00408545  0.47268917  0.03661950    -0.57000
O35         O  0.97592982  0.37761031  0.99917194    -0.47000
O36         O  0.01290483  0.46573622  0.48747251    -0.53400
C37         C  0.07345508  0.44414529  0.00728631     0.86700
O38         O  0.00331514  0.39519599  0.07991128    -0.55300
O39         O  0.95365355  0.40473574  0.02401216    -0.58600
In40       In  0.99980036  0.56376923  0.46727688     1.36900
C41         C  0.00506477  0.51346300  0.49365898     0.79100
O42         O  0.05729159  0.59358437  0.46340359    -0.59300
O43         O  0.03524584  0.60269375  0.00465081    -0.50200
C44         C  0.99651308  0.56479234  0.39533688     0.71800
O45         O  0.98796471  0.53827992  0.41345487    -0.45100
C46         C  0.93771688  0.55039913  0.49054390     0.76500
O47         O  0.00884977  0.52020821  0.46015217    -0.57000
O48         O  0.96192477  0.57259685  0.98580150    -0.47000
O49         O  0.00261304  0.52867269  0.01039439    -0.53400
C50         C  0.06063548  0.61099795  0.49168121     0.86700
O51         O  0.00589862  0.59169578  0.41411799    -0.55300
O52         O  0.94508640  0.52766439  0.48372658    -0.58600
C53         C  0.31112486  0.77421085  0.50035364     0.88000
C54         C  0.34593250  0.77822459  0.50794445    -0.52200
C55         C  0.37350003  0.80653405  0.49242669     0.11000
C56         C  0.36368369  0.82861928  0.47056979     0.21900
C57         C  0.32109942  0.80084538  0.01293741    -0.52900
C58         C  0.34205478  0.83663815  0.49829744     0.11100
C59         C  0.31053050  0.77503362  0.45883745    -0.52500
C60         C  0.33760819  0.80375577  0.44283210     0.11600
H61         H  0.35113862  0.74949702  0.02722517     0.16100
H62         H  0.38619811  0.85180478  0.45811698     0.01900
H63         H  0.30347384  0.80320928  0.03211945     0.16400
H64         H  0.29046425  0.75388747  0.44379073     0.16200
C65         C  0.22245568  0.69173523  0.02325014     0.88000
C66         C  0.22300602  0.66005118  0.00830155    -0.52200
C67         C  0.19627908  0.62947550  0.02120790     0.11000
C68         C  0.17130746  0.63347689  0.04793640     0.21900
C69         C  0.18703241  0.68538791  0.01374003    -0.52900
C70         C  0.16023223  0.65490056  0.02660853     0.11100
C71         C  0.22065650  0.68836605  0.06479698    -0.52500
C72         C  0.19421545  0.65765513  0.07807448     0.11600
H73         H  0.24133559  0.66760538  0.49121335     0.16100
H74         H  0.14949239  0.60860570  0.05828735     0.01900
H75         H  0.17891858  0.70584604  0.49938909     0.16400
H76         H  0.23876931  0.70909447  0.08188266     0.16200
C77         C  0.23307258  0.53045899  0.48511661     0.88000
C78         C  0.22904058  0.56129885  0.49472196    -0.52200
C79         C  0.20371112  0.56197195  0.47679307     0.11000
C80         C  0.18436363  0.53112111  0.45058954     0.21900
C81         C  0.19896133  0.49483459  0.99259236    -0.52900
C82         C  0.17178431  0.49937721  0.47512890     0.11100
C83         C  0.23832555  0.53166460  0.44368602    -0.52500
C84         C  0.21269950  0.53130664  0.42526006     0.11600
H85         H  0.24840427  0.57716562  0.01274081     0.16100
H86         H  0.16352833  0.53144567  0.43619499     0.01900
H87         H  0.19348481  0.47494102  0.01216431     0.16400
H88         H  0.26010906  0.53169077  0.42999547     0.16200
C89         C  0.30125739  0.50401042  0.02104810     0.88000
C90         C  0.33593518  0.53718218  0.01364665    -0.52200
C91         C  0.36211920  0.54009978  0.03333583     0.11000
C92         C  0.35123812  0.50942889  0.05880806     0.21900
C93         C  0.30876753  0.47509990  0.01340754    -0.52900
C94         C  0.33499522  0.47797244  0.03304803     0.11100
C95         C  0.29454925  0.50313211  0.06227983    -0.52500
C96         C  0.32055158  0.50623350  0.08233516     0.11600
H97         H  0.33731196  0.56531568  0.49063646     0.16100
H98         H  0.37269067  0.51167856  0.07442031     0.01900
H99         H  0.29800409  0.46380130  0.48995467     0.16400
H100        H  0.27106531  0.50052953  0.07461564     0.16200
C101        C  0.47028431  0.69692939  0.49866485     0.88000
C102        C  0.44448747  0.64631123  0.01066027    -0.52200
C103        C  0.43977546  0.63518295  0.48791144     0.11000
C104        C  0.47007944  0.64806318  0.45951216     0.21900
C105        C  0.50709611  0.67827587  0.00808515    -0.52900
C106        C  0.50224929  0.66863059  0.48255196     0.11100
C107        C  0.46811370  0.70053337  0.45782474    -0.52500
C108        C  0.46837166  0.67548107  0.43693802     0.11600
H109        H  0.42363929  0.64386464  0.02865057     0.16100
H110        H  0.46986648  0.62703246  0.44322642     0.01900
H111        H  0.52695330  0.69582078  0.02622612     0.16400
H112        H  0.46681906  0.72164691  0.44628773     0.16200
C113        C  0.49292141  0.77182208  0.02868662     0.88000
C114        C  0.45939841  0.77045712  0.01984701    -0.52200
C115        C  0.45438710  0.79411802  0.03832265     0.11000
C116        C  0.48330618  0.81686880  0.06450710     0.21900
C117        C  0.52129245  0.80914678  0.02074422    -0.52900
C118        C  0.51623405  0.83283253  0.03929532     0.11100
C119        C  0.49180192  0.76850509  0.07003285    -0.52500
C120        C  0.48633799  0.79139000  0.08920399     0.11600
H121        H  0.43813527  0.76788255  0.49977003     0.16100
H122        H  0.47922241  0.83612165  0.07945137     0.01900
H123        H  0.54036873  0.82879868  0.50554245     0.16400
H124        H  0.49467062  0.74897419  0.08317922     0.16200
C125        C  0.29263730  0.77213825  0.28074499     0.88000
C126        C  0.28847607  0.76882776  0.32222144    -0.52200
C127        C  0.31587813  0.79367069  0.34049683     0.11000
C128        C  0.34528541  0.82015035  0.31503504     0.21900
C129        C  0.30006824  0.80842411  0.27300018    -0.52900
C130        C  0.32761059  0.83358681  0.29090843     0.11100
C131        C  0.32657339  0.77361636  0.27077746    -0.52500
C132        C  0.35415781  0.79857484  0.28863699     0.11600
H133        H  0.26559583  0.74830017  0.33600564     0.16100
H134        H  0.36783436  0.84075541  0.32922118     0.01900
H135        H  0.28560127  0.81382577  0.25426307     0.16400
H136        H  0.32845510  0.75585917  0.25178939     0.16200
C137        C  0.22686759  0.68155363  0.24342434     0.88000
C138        C  0.19025570  0.67441431  0.25091179    -0.52200
C139        C  0.16615750  0.64791723  0.23084462     0.11000
C140        C  0.18096825  0.63110375  0.20455119     0.21900
C141        C  0.22430623  0.64706469  0.25001691    -0.52900
C142        C  0.20043001  0.62052565  0.22972366     0.11100
C143        C  0.23358655  0.68725805  0.20235623    -0.52500
C144        C  0.20961887  0.66132419  0.18166814     0.11600
H145        H  0.18378960  0.68800873  0.27147948     0.16100
H146        H  0.16133216  0.60946014  0.18832273     0.01900
H147        H  0.24039160  0.64395403  0.26870985     0.16400
H148        H  0.25556166  0.71024062  0.19057013     0.16200
C149        C  0.21545936  0.50066321  0.26819337     0.88000
C150        C  0.21447657  0.50325864  0.30985635    -0.52200
C151        C  0.18931481  0.50874911  0.32422988     0.11000
C152        C  0.16628830  0.50953632  0.29514776     0.21900
C153        C  0.17933519  0.47145660  0.25883811    -0.52900
C154        C  0.15358777  0.47610423  0.27278984     0.11100
C155        C  0.21728207  0.53348257  0.25453900    -0.52500
C156        C  0.19154011  0.53817099  0.26876756     0.11600
H157        H  0.23259757  0.50119664  0.32633805     0.16100
H158        H  0.14534583  0.51335037  0.30651877     0.01900
H159        H  0.17462571  0.44991263  0.24137384     0.16400
H160        H  0.23797666  0.55207990  0.23667628     0.16200
C161        C  0.30849474  0.51884292  0.24371895     0.88000
C162        C  0.30888100  0.51790871  0.20200283    -0.52200
C163        C  0.33731145  0.51900461  0.18584963     0.11000
C164        C  0.36335146  0.52212025  0.21346359     0.21900
C165        C  0.31347743  0.48921518  0.25491912    -0.52900
C166        C  0.34237155  0.49105228  0.23906507     0.11100
C167        C  0.34224631  0.55156719  0.25307726    -0.52500
C168        C  0.37096650  0.55352575  0.23726374     0.11600
H169        H  0.28839789  0.51705368  0.18703675     0.16100
H170        H  0.38681340  0.52364408  0.20073560     0.01900
H171        H  0.29638346  0.46934721  0.27421054     0.16400
H172        H  0.34334209  0.57204469  0.27003076     0.16200
C173        C  0.48245900  0.69555582  0.27529159     0.88000
C174        C  0.48074949  0.69514111  0.31712125    -0.52200
C175        C  0.47733064  0.66608763  0.33211414     0.11000
C176        C  0.47653424  0.64045646  0.30333656     0.21900
C177        C  0.51251191  0.69027419  0.26449513    -0.52900
C178        C  0.50932285  0.66139816  0.27908227     0.11100
C179        C  0.45018503  0.66206558  0.26385537    -0.52500
C180        C  0.44703408  0.63324247  0.27863893     0.11600
H181        H  0.48286031  0.71657963  0.33294957     0.16100
H182        H  0.47395788  0.61685138  0.31501262     0.01900
H183        H  0.53361247  0.70699836  0.24582983     0.16400
H184        H  0.43100658  0.66131040  0.24655970     0.16200
C185        C  0.46276252  0.76664999  0.24963712     0.88000
C186        C  0.46503716  0.76747080  0.20781519    -0.52200
C187        C  0.46647049  0.79565572  0.19289541     0.11000
C188        C  0.46430897  0.81975523  0.22179887     0.21900
C189        C  0.49334790  0.80113882  0.26162869    -0.52900
C190        C  0.49402285  0.82885806  0.24711271     0.11100
C191        C  0.43095491  0.76916315  0.26003603    -0.52500
C192        C  0.43168289  0.79691504  0.24555414     0.11600
H193        H  0.46519992  0.74713357  0.19183251     0.16100
H194        H  0.46496972  0.84249171  0.21024400     0.01900
H195        H  0.51188094  0.80341277  0.28089865     0.16400
H196        H  0.40940244  0.75032486  0.27688124     0.16200
In197      In  0.42603853  0.99399782  0.23508324     1.36900
C198        C  0.47534630  0.98703418  0.26059923     0.79100
O199        O  0.46543118  0.04861579  0.24561090    -0.59300
O200        O  0.41321904  0.03419481  0.25581119    -0.50200
C201        C  0.42496082  0.99706745  0.16347417     0.71800
O202        O  0.45049039  0.00195567  0.18055961    -0.45100
C203        C  0.37634786  0.93300788  0.25952662     0.76500
O204        O  0.46875295  0.98331391  0.22734202    -0.57000
O205        O  0.38358455  0.96036849  0.27634677    -0.47000
O206        O  0.45591514  0.99301964  0.28100709    -0.53400
C207        C  0.44463983  0.05759529  0.25664627     0.86700
O208        O  0.39903182  0.99170953  0.18319231    -0.55300
O209        O  0.39186886  0.93721241  0.22917988    -0.58600
In210      In  0.55978622  0.99002787  0.29926472     1.36900
C211        C  0.50451338  0.98641368  0.27428731     0.79100
O212        O  0.58100356  0.04596389  0.29169932    -0.59300
O213        O  0.60620146  0.02376249  0.26219382    -0.50200
C214        C  0.57098556  0.99714223  0.36987529     0.71800
O215        O  0.54391195  0.99193091  0.35606356    -0.45100
C216        C  0.54516741  0.92705443  0.28181898     0.76500
O217        O  0.51180394  0.99176242  0.30729680    -0.57000
O218        O  0.57219291  0.95320927  0.26961140    -0.47000
O219        O  0.52508606  0.98207203  0.25389258    -0.53400
C220        C  0.60399520  0.05003376  0.26853403     0.86700
O221        O  0.59362473  0.99854889  0.34736592    -0.55300
O222        O  0.52736517  0.93310906  0.30450215    -0.58600
In223      In  0.43462454  0.99248568  0.05223062     1.36900
C224        C  0.49044482  0.99535785  0.02404803     0.79100
O225        O  0.41553322  0.93626559  0.05361139    -0.59300
O226        O  0.38827336  0.95205265  0.02170665    -0.50200
C227        C  0.42666143  0.99654321  0.12368163     0.71800
O228        O  0.45417998  0.00277476  0.10736132    -0.45100
C229        C  0.44624895  0.05181705  0.02660142     0.76500
O230        O  0.48304866  0.99200866  0.05765690    -0.57000
O231        O  0.41908371  0.02389136  0.01958989    -0.47000
O232        O  0.46413803  0.99790351  0.51164218    -0.53400
C233        C  0.39195907  0.92775493  0.03174278     0.86700
O234        O  0.40194178  0.98874905  0.10326234    -0.55300
O235        O  0.46565799  0.04939286  0.04802295    -0.58600
In236      In  0.57347882  0.00544580  0.48099337     1.36900
C237        C  0.51686093  0.99863567  0.51252664     0.79100
O238        O  0.55609484  0.94984641  0.47433134    -0.59300
O239        O  0.58999233  0.95553156  0.99811562    -0.50200
C240        C  0.57404719  0.00087918  0.40931474     0.71800
O241        O  0.54940287  0.99862737  0.42875830    -0.45100
C242        C  0.62086980  0.07015635  0.49601707     0.76500
O243        O  0.52274645  0.00198425  0.47865597    -0.57000
O244        O  0.61811516  0.03065888  0.01443885    -0.47000
O245        O  0.54202591  0.99421104  0.02826426    -0.53400
C246        C  0.56415000  0.94671697  0.50561530     0.86700
O247        O  0.59990803  0.00610890  0.42650471    -0.55300
O248        O  0.59097231  0.06088764  0.48700531    -0.58600
C249        C  0.52319590  0.21951326  0.27215842     0.88000
C250        C  0.55570427  0.21827485  0.26128543    -0.52200
C251        C  0.55872199  0.19419654  0.27974440     0.11000
C252        C  0.52868188  0.17352208  0.30775751     0.21900
C253        C  0.49336963  0.18266049  0.26632297    -0.52900
C254        C  0.49617759  0.15850990  0.28476435     0.11100
C255        C  0.52423554  0.22461955  0.31339540    -0.52500
C256        C  0.52733281  0.20105550  0.33239974     0.11600
H257        H  0.57483184  0.23524656  0.24105239     0.16100
H258        H  0.53111269  0.15394449  0.32264913     0.01900
H259        H  0.47265396  0.17611422  0.24808854     0.16400
H260        H  0.52296857  0.24567233  0.32657686     0.16200
C261        C  0.54335784  0.30892617  0.23708803     0.88000
C262        C  0.57380197  0.34459251  0.24614061    -0.52200
C263        C  0.57553386  0.37077863  0.22681518     0.11000
C264        C  0.54616933  0.35862129  0.19977836     0.21900
C265        C  0.51148381  0.31235539  0.24340436    -0.52900
C266        C  0.51298098  0.33857800  0.22416866     0.11100
C267        C  0.54683884  0.30531185  0.19601730    -0.52500
C268        C  0.54799540  0.33077085  0.17608418     0.11600
H269        H  0.59297180  0.34870928  0.26551130     0.16100
H270        H  0.54755283  0.37989381  0.18404629     0.01900
H271        H  0.49067300  0.29680143  0.26289922     0.16400
H272        H  0.54823509  0.28403599  0.18360745     0.16200
C273        C  0.77217518  0.29722372  0.25989811     0.88000
C274        C  0.77951231  0.33292342  0.24951226    -0.52200
C275        C  0.80626394  0.35927409  0.26709695     0.11000
C276        C  0.82346647  0.34745740  0.29373220     0.21900
C277        C  0.80654631  0.29875462  0.25222882    -0.52900
C278        C  0.83344128  0.32521504  0.26980616     0.11100
C279        C  0.76706371  0.29575744  0.30136676    -0.52500
C280        C  0.79379858  0.32162510  0.31942842     0.11600
H281        H  0.76422966  0.33705487  0.23065364     0.16100
H282        H  0.84539690  0.36910404  0.30767877     0.01900
H283        H  0.80964418  0.28177442  0.23316966     0.16400
H284        H  0.74409790  0.27552979  0.31536591     0.16200
C285        C  0.69453515  0.20797259  0.23348068     0.88000
C286        C  0.66356689  0.21096516  0.24722945    -0.52200
C287        C  0.63292009  0.18656017  0.23337606     0.11000
C288        C  0.63617898  0.16123728  0.20703105     0.21900
C289        C  0.68456262  0.17126921  0.24296492    -0.52900
C290        C  0.65412184  0.14682007  0.22912404     0.11100
C291        C  0.69406989  0.20825802  0.19185582    -0.52500
C292        C  0.66339362  0.18404693  0.17765144     0.11600
H293        H  0.66590257  0.23123152  0.26543879     0.16100
H294        H  0.61128499  0.14119574  0.19593950     0.01900
H295        H  0.69973639  0.16515833  0.25985701     0.16400
H296        H  0.71675713  0.22570893  0.17548792     0.16200
C297        C  0.78551016  0.47086447  0.22650085     0.88000
C298        C  0.78819919  0.44040896  0.23922378    -0.52200
C299        C  0.81513296  0.43878047  0.22355234     0.11000
C300        C  0.83708991  0.46798156  0.19627029     0.21900
C301        C  0.82061171  0.50263131  0.23426608    -0.52900
C302        C  0.84763742  0.50106568  0.21843514     0.11100
C303        C  0.78444150  0.46773095  0.18502677    -0.52500
C304        C  0.81140184  0.46603604  0.16884264     0.11600
H305        H  0.76962649  0.42099632  0.25810684     0.16100
H306        H  0.85914288  0.46672046  0.18353401     0.01900
H307        H  0.82385049  0.52339718  0.25220561     0.16400
H308        H  0.76426675  0.46769651  0.17026553     0.16200
C309        C  0.71387165  0.49011937  0.25795869     0.88000
C310        C  0.68046997  0.45731196  0.24742628    -0.52200
C311        C  0.65174946  0.45241552  0.26659184     0.11000
C312        C  0.65917596  0.48101591  0.29482018     0.21900
C313        C  0.70664034  0.51917580  0.25271374    -0.52900
C314        C  0.67786801  0.51436113  0.27181251     0.11100
C315        C  0.71564244  0.48781205  0.29909570    -0.52500
C316        C  0.68723440  0.48259217  0.31866286     0.11600
H317        H  0.67983072  0.43900736  0.22736847     0.16100
H318        H  0.63576707  0.47699976  0.31030034     0.01900
H319        H  0.72160191  0.54043313  0.23403012     0.16400
H320        H  0.73766927  0.48950593  0.31178318     0.16200
C321        C  0.79064884  0.30592185  0.47995684     0.88000
C322        C  0.78963194  0.30560375  0.43835389    -0.52200
C323        C  0.81480980  0.33530091  0.42188666     0.11000
C324        C  0.83920940  0.36237618  0.44920603     0.21900
C325        C  0.82690130  0.31393406  0.48774046    -0.52900
C326        C  0.85232492  0.34339881  0.47174841     0.11100
C327        C  0.78999428  0.33816911  0.49232832    -0.52500
C328        C  0.81527290  0.36782621  0.47618073     0.11600
H329        H  0.77084222  0.28320318  0.42359995     0.16100
H330        H  0.86000192  0.38648274  0.43628771     0.01900
H331        H  0.83138149  0.28133237  0.00081391     0.16400
H332        H  0.77059674  0.32138939  0.00977886     0.16200
C333        C  0.69901339  0.21879065  0.01135290     0.88000
C334        C  0.70290116  0.22507527  0.05238017    -0.52200
C335        C  0.67653670  0.20035121  0.07333719     0.11000
C336        C  0.64798752  0.17121783  0.05080718     0.21900
C337        C  0.69373430  0.18282150  0.00515609    -0.52900
C338        C  0.66694818  0.15783942  0.02568421     0.11100
C339        C  0.66401652  0.21462026  0.00410012    -0.52500
C340        C  0.63718892  0.18987129  0.02472573     0.11600
H341        H  0.72487417  0.24749854  0.06392505     0.16100
H342        H  0.62604902  0.15086809  0.06714294     0.01900
H343        H  0.71180912  0.19428403  0.48266708     0.16400
H344        H  0.66112619  0.24472653  0.49031481     0.16200
C345        C  0.51853931  0.21521541  0.49345660     0.88000
C346        C  0.51807688  0.21304380  0.45176933    -0.52200
C347        C  0.52224768  0.18723113  0.43711573     0.11000
C348        C  0.52575592  0.16547814  0.46632293     0.21900
C349        C  0.49015270  0.17943342  0.50645653    -0.52900
C350        C  0.49394891  0.15341468  0.49243289     0.11100
C351        C  0.55226890  0.21753692  0.50331714    -0.52500
C352        C  0.55613612  0.19157305  0.48908230     0.11600
H353        H  0.51402028  0.23030466  0.43573720     0.16100
H354        H  0.52890133  0.14428434  0.45500102     0.01900
H355        H  0.46809986  0.16938177  0.02175354     0.16400
H356        H  0.57100731  0.23125821  0.02264792     0.16200
C357        C  0.53743198  0.30279962  0.01642862     0.88000
C358        C  0.53892689  0.30586013  0.05808556    -0.52200
C359        C  0.53923902  0.33440706  0.07199683     0.11000
C360        C  0.53774191  0.35698212  0.04240392     0.21900
C361        C  0.50545009  0.30407134  0.00714837    -0.52900
C362        C  0.50563455  0.33241626  0.02081639     0.11100
C363        C  0.56795776  0.33694935  0.00223723    -0.52500
C364        C  0.56829714  0.36533965  0.01578661     0.11600
H365        H  0.53894310  0.28647529  0.07472830     0.16100
H366        H  0.53790361  0.38015318  0.05322294     0.01900
H367        H  0.48487339  0.29105316  0.48906291     0.16400
H368        H  0.58781978  0.34547810  0.48878916     0.16200
C369        C  0.77637304  0.45672989  0.00484233     0.88000
C370        C  0.76955269  0.45527655  0.04603652    -0.52200
C371        C  0.79419788  0.45520515  0.06578171     0.11000
C372        C  0.82365774  0.45605641  0.04206005     0.21900
C373        C  0.81244505  0.48833647  0.99809392    -0.52900
C374        C  0.83725259  0.48792225  0.01744858     0.11100
C375        C  0.78073549  0.42592331  0.99618899    -0.52500
C376        C  0.80537760  0.42541504  0.01572570     0.11600
H377        H  0.74694800  0.45445440  0.05859955     0.16100
H378        H  0.84386810  0.45555181  0.05749492     0.01900
H379        H  0.81750177  0.52370080  0.47975224     0.16400
H380        H  0.76252574  0.42113617  0.47940367     0.16200
C381        C  0.70351344  0.49008412  0.47882778     0.88000
C382        C  0.70288249  0.48868730  0.43709411    -0.52200
C383        C  0.67279214  0.48324483  0.42330613     0.11000
C384        C  0.64627597  0.47993421  0.45306127     0.21900
C385        C  0.70283716  0.50713399  0.97881047    -0.52900
C386        C  0.66561507  0.51294329  0.47594131     0.11100
C387        C  0.67137517  0.45648044  0.49184615    -0.52500
C388        C  0.64142641  0.45100832  0.47827443     0.11600
H389        H  0.72512385  0.49306162  0.42039288     0.16100
H390        H  0.62184553  0.47560089  0.44227499     0.01900
H391        H  0.71850043  0.52840564  0.99681379     0.16400
H392        H  0.67225366  0.42678319  0.00427457     0.16200
In393      In  0.43837671  0.42615660  0.28444848     1.36900
C394        C  0.48879819  0.48428571  0.25781586     0.79100
O395        O  0.47840471  0.41262782  0.27020035    -0.59300
O396        O  0.42710342  0.37519468  0.25788301    -0.50200
C397        C  0.43381634  0.41616618  0.35584997     0.71800
O398        O  0.46071209  0.43763816  0.33862328    -0.45100
C399        C  0.39016358  0.44015365  0.26703749     0.76500
O400        O  0.48226659  0.47931857  0.29152012    -0.57000
O401        O  0.39196575  0.41564521  0.25215534    -0.47000
O402        O  0.46876947  0.45988537  0.23752017    -0.53400
C403        C  0.45848209  0.38367075  0.25683718     0.86700
O404        O  0.40841818  0.39758948  0.33630314    -0.55300
O405        O  0.41105495  0.45537145  0.29179271    -0.58600
In406      In  0.57555992  0.56827139  0.21723746     1.36900
C407        C  0.51864483  0.51522860  0.24348007     0.79100
O408        O  0.59300881  0.53323997  0.23475589    -0.59300
O409        O  0.62993531  0.58657495  0.23499822    -0.50200
C410        C  0.58329762  0.56939530  0.14534685     0.71800
O411        O  0.56204453  0.54359621  0.16365408    -0.45100
C412        C  0.56018526  0.61468926  0.24103018     0.76500
O413        O  0.52570692  0.51977937  0.20983012    -0.57000
O414        O  0.58397650  0.61226209  0.25435267    -0.47000
O415        O  0.54019430  0.53842625  0.26384905    -0.53400
C416        C  0.62311611  0.55643718  0.24131703     0.86700
O417        O  0.60238355  0.59587914  0.16384350    -0.55300
O418        O  0.54632052  0.59546142  0.21420901    -0.58600
In419      In  0.43536317  0.42490605  0.46735320     1.36900
C420        C  0.48565195  0.48377941  0.49164407     0.79100
O421        O  0.40592043  0.45179201  0.46454346    -0.59300
O422        O  0.38336854  0.40334030  0.99800199    -0.50200
C423        C  0.43313834  0.41577795  0.39569333     0.71800
O424        O  0.46008357  0.43530538  0.41232415    -0.45100
C425        C  0.45071720  0.37970765  0.49119145     0.76500
O426        O  0.47950098  0.47854394  0.45825998    -0.57000
O427        O  0.42571081  0.37474697  0.00479078    -0.47000
O428        O  0.46826261  0.45044362  0.01696026    -0.53400
C429        C  0.38797845  0.43866632  0.49316449     0.86700
O430        O  0.40646582  0.39867057  0.41591389    -0.55300
O431        O  0.47266480  0.41024118  0.48324781    -0.58600
In432      In  0.57616981  0.55909310  0.03449725     1.36900
C433        C  0.52262137  0.50248345  0.00988414     0.79100
O434        O  0.53759527  0.57509056  0.03059201    -0.59300
O435        O  0.58932295  0.61147980  0.01432933    -0.50200
C436        C  0.58340567  0.56727064  0.10566636     0.71800
O437        O  0.56178239  0.53989391  0.09051882    -0.45100
C438        C  0.62506771  0.54980313  0.00406773     0.76500
O439        O  0.52805720  0.50795664  0.04332787    -0.57000
O440        O  0.61800215  0.57084956  0.99133029    -0.47000
O441        O  0.53427687  0.54071485  0.48524673    -0.53400
C442        C  0.55850376  0.60435830  0.01791104     0.86700
O443        O  0.60318913  0.59145745  0.08420147    -0.55300
O444        O  0.60936147  0.53590331  0.03351255    -0.58600
C445        C  0.64711129  0.53986845  0.98541974    -0.11700
C446        C  0.65186381  0.53484409  0.48473277    -0.13300
C447        C  0.73911515  0.48002769  0.98962685    -0.14900
C448        C  0.74804798  0.45614205  0.98430316    -0.30100
H449        H  0.75395508  0.50169073  0.00752540     0.14100
H450        H  0.73168259  0.45090020  0.46900437     0.14700
C451        C  0.48015208  0.34080421  0.01190789    -0.11700
C452        C  0.46151796  0.35730913  0.50433497    -0.13300
C453        C  0.60842390  0.41810474  0.48367794    -0.14900
C454        C  0.59801091  0.40036995  0.00879415    -0.30100
H455        H  0.59662557  0.39677042  0.95148131     0.14100
H456        H  0.60541091  0.42145876  0.54094708     0.14700
C457        C  0.53894485  0.27230437  0.00117235    -0.14900
C458        C  0.51457443  0.24435654  0.50888271    -0.30100
H459        H  0.56059840  0.27736040  0.98290333     0.14100
H460        H  0.49293554  0.23842670  0.52755372     0.14700
C461        C  0.60178645  0.18396799  0.02371609    -0.14900
C462        C  0.58828900  0.19099912  0.49221496    -0.30100
H463        H  0.58827292  0.19198890  0.54972120     0.14100
H464        H  0.60236719  0.18740402  0.96659587     0.14700
C465        C  0.81171887  0.39653754  0.01303371    -0.14900
C466        C  0.81671919  0.40113749  0.48122162    -0.30100
H467        H  0.81048025  0.38335064  0.03780790     0.14100
H468        H  0.82246802  0.41716581  0.45740786     0.14700
C469        C  0.76227452  0.27325387  0.49755953    -0.14900
C470        C  0.72828220  0.24753815  0.98933608    -0.30100
H471        H  0.76770830  0.24256101  0.01091836     0.14100
H472        H  0.72241181  0.26254184  0.97163958     0.14700
C473        C  0.64711305  0.54801608  0.25489654    -0.11700
C474        C  0.66273446  0.53481373  0.26459400    -0.13300
C475        C  0.68586332  0.47721692  0.35851411    -0.14900
C476        C  0.66706125  0.48321302  0.38354328    -0.30100
H477        H  0.70362060  0.46993689  0.36773033     0.14100
H478        H  0.64837373  0.48954197  0.37507355     0.14700
C479        C  0.81633921  0.46370009  0.12871152    -0.14900
C480        C  0.79041780  0.45387843  0.10602814    -0.30100
H481        H  0.84189845  0.47103788  0.11793198     0.14100
H482        H  0.76482222  0.44585656  0.11718706     0.14700
C483        C  0.75465366  0.47044709  0.24412039    -0.14900
C484        C  0.74562850  0.49386811  0.23816178    -0.30100
H485        H  0.73832437  0.44934632  0.26258379     0.14100
H486        H  0.76130301  0.51547692  0.22012637     0.14700
C487        C  0.67753072  0.20394612  0.11359469    -0.14900
C488        C  0.65739973  0.17903803  0.13774188    -0.30100
H489        H  0.69720042  0.22878282  0.12361123     0.14100
H490        H  0.63671740  0.15442379  0.12846486     0.14700
C491        C  0.79199469  0.32213619  0.35988733    -0.14900
C492        C  0.81875408  0.34048448  0.38154340    -0.30100
H493        H  0.76683477  0.30480308  0.37239283     0.14100
H494        H  0.84390154  0.35898306  0.36990031     0.14700
C495        C  0.81491799  0.39519961  0.26271126    -0.14900
C496        C  0.81946101  0.40908432  0.22946781    -0.30100
H497        H  0.81362226  0.40884341  0.28685933     0.14100
H498        H  0.82289573  0.39637640  0.20559843     0.14700
C499        C  0.74138152  0.26874963  0.24113000    -0.14900
C500        C  0.72843447  0.23533546  0.24849743    -0.30100
H501        H  0.72772497  0.27569112  0.22290682     0.14100
H502        H  0.74188143  0.22797060  0.26650704     0.14700
C503        C  0.48879279  0.35020221  0.23176489    -0.11700
C504        C  0.47182012  0.36284434  0.24176273    -0.13300
C505        C  0.55163384  0.32944214  0.13577632    -0.14900
C506        C  0.53990549  0.34253527  0.11179911    -0.30100
H507        H  0.56237952  0.31414653  0.12555715     0.14100
H508        H  0.52977794  0.35856406  0.12131349     0.14700
C509        C  0.60475920  0.40674047  0.23023601    -0.14900
C510        C  0.61759360  0.42063729  0.26288525    -0.30100
H511        H  0.61714348  0.42114933  0.20542221     0.14100
H512        H  0.60359304  0.40741905  0.28774629     0.14700
C513        C  0.53049578  0.20531952  0.37256849    -0.14900
C514        C  0.52275456  0.18048281  0.39697871    -0.30100
H515        H  0.53816719  0.23086756  0.38254397     0.14100
H516        H  0.51611718  0.15498377  0.38776337     0.14700
C517        C  0.58885919  0.18958995  0.27388432    -0.14900
C518        C  0.60037536  0.18672591  0.24023139    -0.30100
H519        H  0.60172809  0.18859080  0.29760196     0.14100
H520        H  0.58557565  0.18449982  0.21682809     0.14700
C521        C  0.54332590  0.28053793  0.25780851    -0.14900
C522        C  0.52043586  0.24691683  0.25251715    -0.30100
H523        H  0.56380223  0.28763816  0.27658245     0.14100
H524        H  0.49968234  0.23933544  0.23401124     0.14700
C525        C  0.64434529  0.10525378  0.50587381    -0.11700
C526        C  0.65468638  0.12161941  0.02014842    -0.13300
C527        C  0.45624567  0.08420278  0.01030686    -0.11700
C528        C  0.47284700  0.11850956  0.50550059    -0.13300
C529        C  0.63889087  0.11107403  0.23829305    -0.11700
C530        C  0.62490438  0.08231832  0.25032256    -0.13300
C531        C  0.45708613  0.09216352  0.26947146    -0.11700
C532        C  0.47330597  0.12210657  0.27833103    -0.13300
C533        C  0.51772858  0.86356274  0.25838727    -0.11700
C534        C  0.53346854  0.89282470  0.26906331    -0.13300
C535        C  0.53204744  0.64908994  0.26815694    -0.11700
C536        C  0.54767619  0.63575132  0.25646479    -0.13300
C537        C  0.48556781  0.72750696  0.25928677    -0.14900
C538        C  0.46100805  0.73544377  0.26584693    -0.30100
H539        H  0.50791929  0.74417401  0.24195778     0.14100
H540        H  0.43870335  0.71848257  0.28310615     0.14700
C541        C  0.36789365  0.45204700  0.25574045    -0.11700
C542        C  0.35409801  0.46774820  0.24773192    -0.13300
C543        C  0.40561576  0.58431297  0.24146657    -0.14900
C544        C  0.41611918  0.59885655  0.27430396    -0.30100
H545        H  0.42196729  0.59587135  0.21725148     0.14100
H546        H  0.40093926  0.58584900  0.29874025     0.14700
C547        C  0.24466650  0.49603811  0.25331678    -0.14900
C548        C  0.27756854  0.51922292  0.26078834    -0.30100
H549        H  0.23902260  0.47420589  0.23587835     0.14100
H550        H  0.28238097  0.54083976  0.27824259     0.14700
C551        C  0.19110461  0.57035272  0.26423192    -0.14900
C552        C  0.19516836  0.58543580  0.23179487    -0.30100
H553        H  0.18771196  0.58227427  0.28880878     0.14100
H554        H  0.19558513  0.57245989  0.20673415     0.14700
C555        C  0.34097431  0.86959408  0.28406244    -0.11700
C556        C  0.35460544  0.89920620  0.27457076    -0.13300
C557        C  0.40258224  0.80284005  0.25089411    -0.14900
C558        C  0.38848990  0.80216375  0.28416026    -0.30100
H559        H  0.39128061  0.80573778  0.22681232     0.14100
H560        H  0.40110374  0.80179242  0.30840933     0.14700
C561        C  0.26246094  0.74350180  0.26137682    -0.14900
C562        C  0.25404358  0.71061781  0.26537140    -0.30100
H563        H  0.24830247  0.74967365  0.24300589     0.17700
H564        H  0.26859876  0.70492062  0.28372206     0.14700
C565        C  0.55259723  0.91353604  0.52070148    -0.11700
C566        C  0.53645452  0.86913868  0.03052774    -0.13300
C567        C  0.48409372  0.78919219  0.12972652    -0.14900
C568        C  0.47037069  0.80285158  0.15279394    -0.30100
H569        H  0.49336664  0.77371682  0.14101796     0.14100
H570        H  0.46202820  0.81948711  0.14251824     0.14700
C571        C  0.53102070  0.64035933  0.99996800    -0.11700
C572        C  0.54693322  0.62693094  0.00770596    -0.13300
C573        C  0.47548324  0.65982178  0.37216312    -0.14900
C574        C  0.46732488  0.67724891  0.39669162    -0.30100
H575        H  0.48128714  0.64086752  0.38125593     0.14100
H576        H  0.46063308  0.69535522  0.38699600     0.14700
C577        C  0.49729762  0.74424565  0.00948940    -0.14900
C578        C  0.47440787  0.71084158  0.01660039    -0.30100
H579        H  0.51906760  0.75138074  0.99061614     0.14100
H580        H  0.44777025  0.71842969  0.53927212     0.14700
C581        C  0.34983640  0.45691318  0.02504898    -0.11700
C582        C  0.36714942  0.45138281  0.50935820    -0.13300
C583        C  0.31690998  0.50585633  0.12269100    -0.14900
C584        C  0.34296989  0.51757039  0.14562625    -0.30100
H585        H  0.29098542  0.49631969  0.13371907     0.14100
H586        H  0.36892826  0.52640975  0.13506409     0.14700
C587        C  0.41123886  0.59887379  0.49114239    -0.14900
C588        C  0.39706344  0.57099251  0.03109666    -0.30100
H589        H  0.39995458  0.58509522  0.46618262     0.14100
H590        H  0.40808425  0.58489605  0.05607770     0.14700
C591        C  0.21360246  0.52940389  0.38484378    -0.14900
C592        C  0.18586139  0.51502404  0.36392309    -0.30100
H593        H  0.23873673  0.53784090  0.37197387     0.14100
H594        H  0.16054923  0.50727966  0.37578067     0.14700
C595        C  0.26189080  0.53120888  0.50483509    -0.14900
C596        C  0.27228462  0.50181667  0.00003466    -0.30100
H597        H  0.27761790  0.54664105  0.02395338     0.14100
H598        H  0.25852093  0.48724178  0.47979067     0.14700
C599        C  0.18805713  0.64866163  0.11773440    -0.14900
C600        C  0.21361789  0.66443846  0.14134086    -0.30100
H601        H  0.16231269  0.62950281  0.12739690     0.14100
H602        H  0.23936522  0.68276566  0.13091666     0.14700
C603        C  0.19402837  0.59609930  0.01356338    -0.14900
C604        C  0.19720407  0.59081655  0.48201170    -0.30100
H605        H  0.18765810  0.57874178  0.03631862     0.14100
H606        H  0.19705020  0.60436358  0.45816205     0.14700
C607        C  0.35324034  0.87109653  0.51135099    -0.11700
C608        C  0.37244207  0.89304057  0.01825121    -0.13300
C609        C  0.34166971  0.80978265  0.40256427    -0.14900
C610        C  0.31451185  0.79325505  0.38094535    -0.30100
H611        H  0.36714327  0.82728924  0.39089891     0.14100
H612        H  0.28909698  0.77687208  0.39334768     0.14700
C613        C  0.42324450  0.79641904  0.03402083    -0.14900
C614        C  0.40901641  0.81381390  0.49626929    -0.30100
H615        H  0.40675718  0.79234203  0.05806589     0.14100
H616        H  0.42460590  0.81658723  0.47181523     0.14700
C617        C  0.28129916  0.74172807  0.51690765    -0.14900
C618        C  0.25276662  0.72549093  0.00947637    -0.30100
H619        H  0.28691710  0.72552694  0.53296309     0.14100
H620        H  0.24824290  0.74218162  0.99292893     0.14700
C621        C  0.09357602  0.63159852  0.50764594    -0.11700
C622        C  0.12510024  0.64216309  0.01677790    -0.13300
C623        C  0.87355592  0.51227195  0.01062963    -0.11700
C624        C  0.90336402  0.54098847  0.50256370    -0.13300
C625        C  0.88792479  0.35698380  0.47963099    -0.11700
C626        C  0.91671836  0.35685981  0.98907277    -0.13300
C627        C  0.13590018  0.47525704  0.48362774    -0.11700
C628        C  0.10789824  0.45661614  0.99301249    -0.13300
C629        C  0.09986641  0.62049695  0.24840200    -0.11700
C630        C  0.12979246  0.63403104  0.23843016    -0.13300
C631        C  0.91132599  0.53987143  0.23949284    -0.11700
C632        C  0.88274499  0.52478926  0.22783760    -0.13300
C633        C  0.89858751  0.34799327  0.25088505    -0.11700
C634        C  0.86882769  0.33528709  0.26116703    -0.13300
C635        C  0.11833602  0.45460149  0.26210930    -0.11700
C636        C  0.08956830  0.44043228  0.25077799    -0.13300
In637      In  0.99645800  0.42045002  0.71612877     1.36900
C638        C  0.98951579  0.47150824  0.74069585     0.79100
O639        O  0.93931784  0.38943394  0.71165080    -0.59300
O640        O  0.96087629  0.37519016  0.75282910    -0.50200
C641        C  0.00581146  0.42175404  0.64427996     0.71800
O642        O  0.01274268  0.44767729  0.66346978    -0.45100
C643        C  0.05714325  0.43516977  0.74110738     0.76500
O644        O  0.99213531  0.46653599  0.70711291    -0.57000
O645        O  0.03717002  0.40649057  0.72658338    -0.47000
O646        O  0.98898391  0.44956943  0.76155097    -0.53400
C647        C  0.93403847  0.37068252  0.73862722     0.86700
O648        O  0.99495880  0.39427151  0.66189393    -0.55300
O649        O  0.04576489  0.45512698  0.74349675    -0.58600
In650      In  0.99673131  0.55935933  0.78125656     1.36900
C651        C  0.98973964  0.50179471  0.75471410     0.79100
O652        O  0.93989390  0.53866441  0.78850276    -0.59300
O653        O  0.96493683  0.56737262  0.74076110    -0.50200
C654        C  0.99871919  0.56444583  0.85344919     0.71800
O655        O  0.99482893  0.53879877  0.83558140    -0.45100
C656        C  0.06171536  0.60433764  0.75912756     0.76500
O657        O  0.98920753  0.50742076  0.78835951    -0.57000
O658        O  0.03954454  0.61325680  0.76358959    -0.47000
O659        O  0.99273409  0.52520494  0.73434112    -0.53400
C660        C  0.93685426  0.54858416  0.75808333     0.86700
O661        O  0.00168994  0.58875209  0.83438521    -0.55300
O662        O  0.05077876  0.57346211  0.76634083    -0.58600
In663      In  0.01009454  0.43309382  0.53335045     1.36900
C664        C  0.00745279  0.48528142  0.50787708     0.79100
O665        O  0.06630144  0.46923866  0.52589520    -0.59300
O666        O  0.04679236  0.41811233  0.50678629    -0.50200
C667        C  0.00879914  0.42449113  0.60456326     0.71800
O668        O  0.01733175  0.45253615  0.58969934    -0.45100
C669        C  0.94927338  0.38863021  0.50731130     0.76500
O670        O  0.00382139  0.47845777  0.54134441    -0.57000
O671        O  0.97656837  0.39086746  0.49416962    -0.47000
O672        O  0.01578600  0.46125241  0.98327958    -0.53400
C673        C  0.07240631  0.44822370  0.50956278     0.86700
O674        O  0.00195060  0.39995670  0.58278270    -0.55300
O675        O  0.95285825  0.40649227  0.53528072    -0.58600
In676      In  0.00255118  0.56005353  0.96494557     1.36900
C677        C  0.00822430  0.50941211  0.98960779     0.79100
O678        O  0.06010793  0.59141522  0.96096254    -0.59300
O679        O  0.03292028  0.60691712  0.50591373    -0.50200
C680        C  0.99973184  0.56445868  0.89328076     0.71800
O681        O  0.99612838  0.53863290  0.90934931    -0.45100
C682        C  0.93874410  0.54123836  0.98887730     0.76500
O683        O  0.01150885  0.51636673  0.95616075    -0.57000
O684        O  0.96224721  0.58092901  0.48556668    -0.47000
O685        O  0.99861295  0.53249059  0.51383931    -0.53400
C686        C  0.06322942  0.60800725  0.98982496     0.86700
O687        O  0.00444802  0.58906077  0.91400459    -0.55300
O688        O  0.94814592  0.52048867  0.97945898    -0.58600
C689        C  0.31671401  0.76618024  0.00080487     0.88000
C690        C  0.35033124  0.76849691  0.01057240    -0.52200
C691        C  0.37930698  0.79604156  0.99585186     0.11000
C692        C  0.37180183  0.81911657  0.97230743     0.21900
C693        C  0.31431726  0.80809656  0.51366708    -0.52900
C694        C  0.35003790  0.82857661  0.99810429     0.11100
C695        C  0.31784427  0.76688286  0.95915978    -0.52500
C696        C  0.34609802  0.79504616  0.94382524     0.11600
H697        H  0.34862500  0.75993252  0.52385340     0.16100
H698        H  0.39526567  0.84172119  0.96033308     0.01900
H699        H  0.29734862  0.80940878  0.53463426     0.16400
H700        H  0.29749326  0.74666442  0.94345283     0.16200
C701        C  0.21927500  0.69652610  0.52468886     0.88000
C702        C  0.22081518  0.66532528  0.50961251    -0.52200
C703        C  0.19481630  0.63443937  0.52285912     0.11000
C704        C  0.16962049  0.63771621  0.54995187     0.21900
C705        C  0.18337253  0.68898667  0.51573136    -0.52900
C706        C  0.15739131  0.65825633  0.52883491     0.11100
C707        C  0.21816367  0.69343576  0.56623009    -0.52500
C708        C  0.19246579  0.66246739  0.57980419     0.11600
H709        H  0.24344614  0.66179297  0.99015654     0.16100
H710        H  0.14838373  0.61262708  0.56055464     0.01900
H711        H  0.18350023  0.70282123  0.99730764     0.16400
H712        H  0.23604618  0.71453840  0.58309241     0.16200
C713        C  0.23515923  0.52573408  0.98462681     0.88000
C714        C  0.23202548  0.55719117  0.99379759    -0.52200
C715        C  0.20709553  0.55834836  0.97563296     0.11000
C716        C  0.18729502  0.52759281  0.94966663     0.21900
C717        C  0.19728827  0.49894627  0.49302783    -0.52900
C718        C  0.17390423  0.49590681  0.97446873     0.11100
C719        C  0.24047161  0.52655440  0.94317062    -0.52500
C720        C  0.21536237  0.52707862  0.92450910     0.11600
H721        H  0.24524837  0.58131664  0.51371672     0.16100
H722        H  0.16679415  0.52851798  0.93527203     0.01900
H723        H  0.19238021  0.47907192  0.51237505     0.16400
H724        H  0.26214594  0.52623546  0.92968452     0.16200
C725        C  0.30272522  0.51227925  0.51787608     0.88000
C726        C  0.33607230  0.54626230  0.50896503    -0.52200
C727        C  0.36389451  0.55105553  0.52696178     0.11000
C728        C  0.35569671  0.52098920  0.55254525     0.21900
C729        C  0.31168419  0.48453068  0.50927154    -0.52900
C730        C  0.33938406  0.48898695  0.52733736     0.11100
C731        C  0.29787846  0.51168217  0.55930839    -0.52500
C732        C  0.32534768  0.51639277  0.57783653     0.11600
H733        H  0.33934234  0.55690796  0.99487081     0.16100
H734        H  0.37830863  0.52462266  0.56700761     0.01900
H735        H  0.29576636  0.45520956  0.99305901     0.16400
H736        H  0.27433857  0.50779528  0.57293381     0.16200
C737        C  0.47587016  0.68107859  0.99913368     0.88000
C738        C  0.44001996  0.66090186  0.50828970    -0.52200
C739        C  0.44398807  0.61859046  0.99478568     0.11000
C740        C  0.47522657  0.62818468  0.96880976     0.21900
C741        C  0.50246847  0.69440234  0.50284382    -0.52900
C742        C  0.50663172  0.65050928  0.99215531     0.11100
C743        C  0.47576409  0.68102242  0.95750136    -0.52500
C744        C  0.47542411  0.65326778  0.94132619     0.11600
H745        H  0.42000638  0.65620705  0.52874899     0.16100
H746        H  0.47495651  0.60559969  0.95601649     0.01900
H747        H  0.52239046  0.71004092  0.52182961     0.16400
H748        H  0.47705614  0.70198838  0.94257263     0.16200
C749        C  0.48807299  0.78678055  0.53114516     0.88000
C750        C  0.45618856  0.78677641  0.51852188    -0.52200
C751        C  0.45176852  0.81190063  0.53428599     0.11000
C752        C  0.47962495  0.83469319  0.56128357     0.21900
C753        C  0.51817512  0.82322804  0.52312627    -0.52900
C754        C  0.51375708  0.84825421  0.53894302     0.11100
C755        C  0.48415712  0.78466655  0.57275030    -0.52500
C756        C  0.47917141  0.80942723  0.58877128     0.11600
H757        H  0.44113385  0.75221512  0.00079389     0.16100
H758        H  0.47600906  0.85515680  0.57398592     0.01900
H759        H  0.54236878  0.81621994  0.00090254     0.16400
H760        H  0.48587639  0.76541845  0.58788477     0.16200
C761        C  0.29557804  0.77522967  0.78412744     0.88000
C762        C  0.29294036  0.77001396  0.82539730    -0.52200
C763        C  0.32163627  0.79299118  0.84333082     0.11000
C764        C  0.35058997  0.82001811  0.81790561     0.21900
C765        C  0.30445471  0.81242584  0.77942276    -0.52900
C766        C  0.33320134  0.83592968  0.79704878     0.11100
C767        C  0.32844853  0.77553605  0.77109535    -0.52500
C768        C  0.35727917  0.79891126  0.78866447     0.11600
H769        H  0.27013583  0.74949694  0.83929692     0.16100
H770        H  0.37404300  0.83921279  0.83201306     0.01900
H771        H  0.28996783  0.81963400  0.76278842     0.16400
H772        H  0.32863438  0.75802270  0.75051476     0.16200
C773        C  0.22487832  0.68673876  0.74559286     0.88000
C774        C  0.18843478  0.68055589  0.75258524    -0.52200
C775        C  0.16410317  0.65443759  0.73209555     0.11000
C776        C  0.17860080  0.63712110  0.70610298     0.21900
C777        C  0.22109103  0.65172662  0.75207098    -0.52900
C778        C  0.19707588  0.62562758  0.73156669     0.11100
C779        C  0.23210449  0.69258145  0.70456326    -0.52500
C780        C  0.20795865  0.66708793  0.68355572     0.11600
H781        H  0.18223237  0.69443038  0.77303888     0.16100
H782        H  0.15886423  0.61580002  0.68965620     0.01900
H783        H  0.23680926  0.64801287  0.77073384     0.16400
H784        H  0.25453532  0.71534546  0.69304305     0.16200
C785        C  0.21830319  0.50877316  0.76332949     0.88000
C786        C  0.21885016  0.51013536  0.80502163    -0.52200
C787        C  0.19371608  0.51436543  0.82184040     0.11000
C788        C  0.16925837  0.51543747  0.79474775     0.21900
C789        C  0.18202964  0.47917161  0.75482224    -0.52900
C790        C  0.15631934  0.48268784  0.77119442     0.11100
C791        C  0.21867416  0.54141005  0.75193338    -0.52500
C792        C  0.19293149  0.54487600  0.76836757     0.11600
H793        H  0.23769970  0.50757577  0.81953910     0.16100
H794        H  0.14835761  0.51835289  0.80797626     0.01900
H795        H  0.17713667  0.45817383  0.73640532     0.16400
H796        H  0.23829983  0.56063829  0.73366364     0.16200
C797        C  0.31138625  0.52751822  0.73800916     0.88000
C798        C  0.31430543  0.52911560  0.69639982    -0.52200
C799        C  0.34235314  0.52867842  0.68141089     0.11000
C800        C  0.36571044  0.52798789  0.71028956     0.21900
C801        C  0.31298003  0.49568394  0.74807593    -0.52900
C802        C  0.34155919  0.49604501  0.73372576     0.11100
C803        C  0.34557243  0.55805196  0.75040116    -0.52500
C804        C  0.37405709  0.55844103  0.73608182     0.11600
H805        H  0.29563065  0.53078578  0.68052170     0.16100
H806        H  0.38889297  0.52822077  0.69866273     0.01900
H807        H  0.29411587  0.47559245  0.76615257     0.16400
H808        H  0.34719604  0.57810506  0.76848585     0.16200
C809        C  0.48445559  0.69572056  0.78027470     0.88000
C810        C  0.47950208  0.69614562  0.82156688    -0.52200
C811        C  0.47492322  0.66782784  0.83864838     0.11000
C812        C  0.47630743  0.64133923  0.81246807     0.21900
C813        C  0.51513106  0.69062677  0.77381120    -0.52900
C814        C  0.51087426  0.66210504  0.79056514     0.11100
C815        C  0.45336169  0.66204915  0.76750135    -0.52500
C816        C  0.44895432  0.63349238  0.78422305     0.11600
H817        H  0.47915842  0.71711373  0.83615863     0.16100
H818        H  0.47267565  0.61802164  0.82597886     0.01900
H819        H  0.53717713  0.70681330  0.75589352     0.16400
H820        H  0.43578858  0.66100521  0.74767038     0.16200
C821        C  0.46371168  0.76381822  0.75001741     0.88000
C822        C  0.46235589  0.75945390  0.70873561    -0.52200
C823        C  0.46258355  0.78539559  0.69069385     0.11000
C824        C  0.46350305  0.81345539  0.71620243     0.21900
C825        C  0.49545782  0.79911613  0.75691154    -0.52900
C826        C  0.49535960  0.82509504  0.73927422     0.11100
C827        C  0.43298535  0.76785009  0.76117120    -0.52500
C828        C  0.43266978  0.79379335  0.74355436     0.11600
H829        H  0.46174673  0.73771960  0.69485166     0.16100
H830        H  0.46333513  0.83472479  0.70213640     0.01900
H831        H  0.51534693  0.80333842  0.77534037     0.16400
H832        H  0.41274250  0.75110658  0.78063342     0.16200
In833      In  0.43137792  0.99842529  0.74465109     1.36900
C834        C  0.48152934  0.99111781  0.76653570     0.79100
O835        O  0.47057353  0.05204455  0.75926951    -0.59300
O836        O  0.41836781  0.03899837  0.76362056    -0.50200
C837        C  0.42846115  0.00219761  0.67309156     0.71800
O838        O  0.45496750  0.00851717  0.68919074    -0.45100
C839        C  0.38320074  0.93664039  0.76942482     0.76500
O840        O  0.47451812  0.98930270  0.73349896    -0.57000
O841        O  0.38875783  0.96380251  0.78567252    -0.47000
O842        O  0.46253267  0.99623970  0.78871288    -0.53400
C843        C  0.44972747  0.06182333  0.76690398     0.86700
O844        O  0.40260143  0.99512516  0.69381464    -0.55300
O845        O  0.39971041  0.94135211  0.73965702    -0.58600
In846      In  0.56304661  0.98439644  0.79768060     1.36900
C847        C  0.51016640  0.98828495  0.77791053     0.79100
O848        O  0.59334753  0.04197028  0.79803775    -0.59300
O849        O  0.60236037  0.01661373  0.75348659    -0.50200
C850        C  0.57080080  0.98297882  0.86870096     0.71800
O851        O  0.54322328  0.97614292  0.85466257    -0.45100
C852        C  0.54735046  0.92286027  0.77316843     0.76500
O853        O  0.51814745  0.99094822  0.81070859    -0.57000
O854        O  0.57835793  0.94689432  0.77491828    -0.47000
O855        O  0.52904531  0.98343808  0.75537628    -0.53400
C856        C  0.60805662  0.04462707  0.76743376     0.86700
O857        O  0.59532608  0.98952464  0.84614789    -0.55300
O858        O  0.52545752  0.92997276  0.78532518    -0.58600
In859      In  0.43328415  0.99696875  0.56105711     1.36900
C860        C  0.48623160  0.99626394  0.52968954     0.79100
O861        O  0.40895251  0.93969048  0.56233426    -0.59300
O862        O  0.38688587  0.95991401  0.52857428    -0.50200
C863        C  0.42880024  0.00164978  0.63321291     0.71800
O864        O  0.45536682  0.00695631  0.61540117    -0.45100
C865        C  0.44797535  0.05770072  0.53555497     0.76500
O866        O  0.48057085  0.99369387  0.56367399    -0.57000
O867        O  0.41752180  0.03224945  0.53650303    -0.47000
O868        O  0.46932008  0.99732413  0.00463222    -0.53400
C869        C  0.38714771  0.93376032  0.53897622     0.86700
O870        O  0.40352915  0.99467913  0.61407483    -0.55300
O871        O  0.46969063  0.05249526  0.54932136    -0.58600
In872      In  0.57306772  0.99244401  0.98035462     1.36900
C873        C  0.52072832  0.99584304  0.00872054     0.79100
O874        O  0.53693593  0.93918809  0.00068922    -0.59300
O875        O  0.58014100  0.97429273  0.52339269    -0.50200
C876        C  0.57302001  0.98468469  0.90840805     0.71800
O877        O  0.54727730  0.97911461  0.92802894    -0.45100
C878        C  0.62012639  0.05653423  0.99978902     0.76500
O879        O  0.52683044  0.99676177  0.97487415    -0.57000
O880        O  0.62768511  0.04646073  0.49642516    -0.47000
O881        O  0.53986075  0.99862236  0.53046707    -0.53400
C882        C  0.55951010  0.93186840  0.00612490     0.86700
O883        O  0.59977699  0.99312973  0.92563737    -0.55300
O884        O  0.60029461  0.04960005  0.97405956    -0.58600
C885        C  0.53696573  0.22409731  0.77358558     0.88000
C886        C  0.56640608  0.21834921  0.76121891    -0.52200
C887        C  0.56717421  0.19319456  0.77994986     0.11000
C888        C  0.53812629  0.17590205  0.80961050     0.21900
C889        C  0.50418102  0.18860238  0.77005204    -0.52900
C890        C  0.50488044  0.16332660  0.78876860     0.11100
C891        C  0.54116964  0.23099047  0.81449468    -0.52500
C892        C  0.54128999  0.20574870  0.83370731     0.11600
H893        H  0.58549131  0.23336960  0.73998830     0.16100
H894        H  0.53876696  0.15531503  0.82457151     0.01900
H895        H  0.48319369  0.18366526  0.75293202     0.16400
H896        H  0.54303808  0.25370265  0.82734836     0.16200
C897        C  0.51838428  0.29362565  0.73984105     0.88000
C898        C  0.55243328  0.32739700  0.74583170    -0.52200
C899        C  0.55618586  0.35468619  0.72675480     0.11000
C900        C  0.52521224  0.34543066  0.70312020     0.21900
C901        C  0.49036002  0.30217161  0.74957853    -0.52900
C902        C  0.49382711  0.32923368  0.73039668     0.11100
C903        C  0.51680119  0.28804230  0.69861996    -0.52500
C904        C  0.52068760  0.31499794  0.67904204     0.11600
H905        H  0.57204213  0.32929561  0.76330440     0.16100
H906        H  0.52800008  0.36759180  0.68789947     0.01900
H907        H  0.47017266  0.28868179  0.77038411     0.16400
H908        H  0.51325543  0.26461124  0.68590387     0.16200
C909        C  0.77292794  0.29263000  0.75924648     0.88000
C910        C  0.77899988  0.32774445  0.74826109    -0.52200
C911        C  0.80466822  0.35482390  0.76625761     0.11000
C912        C  0.82211783  0.34406264  0.79395048     0.21900
C913        C  0.80812266  0.29569942  0.75291171    -0.52900
C914        C  0.83393619  0.32281724  0.77089761     0.11100
C915        C  0.76662974  0.29100966  0.80053886    -0.52500
C916        C  0.79243469  0.31731940  0.81906498     0.11600
H917        H  0.76357514  0.33089388  0.72869209     0.16100
H918        H  0.84312337  0.36612214  0.80847111     0.01900
H919        H  0.81252824  0.27923344  0.73433740     0.16400
H920        H  0.74401259  0.26994683  0.81414028     0.16200
C921        C  0.69851074  0.20242645  0.73140832     0.88000
C922        C  0.66751541  0.20504485  0.74558740    -0.52200
C923        C  0.63698059  0.18097081  0.73144060     0.11000
C924        C  0.64026235  0.15632156  0.70421069     0.21900
C925        C  0.68856091  0.16555942  0.74001364    -0.52900
C926        C  0.65804951  0.14134440  0.72591525     0.11100
C927        C  0.69822836  0.20365020  0.68986200    -0.52500
C928        C  0.66753024  0.18018156  0.67528251     0.11600
H929        H  0.66975195  0.22487342  0.76443171     0.16100
H930        H  0.61536034  0.13665923  0.69281347     0.01900
H931        H  0.70342357  0.15920141  0.75711316     0.16400
H932        H  0.72070983  0.22190933  0.67370912     0.16200
C933        C  0.77688000  0.46316069  0.72937854     0.88000
C934        C  0.78038438  0.43265553  0.73989927    -0.52200
C935        C  0.80798840  0.43258800  0.72365283     0.11000
C936        C  0.82997184  0.46355990  0.69812721     0.21900
C937        C  0.81151665  0.49505799  0.73880879    -0.52900
C938        C  0.83939432  0.49512635  0.72267767     0.11100
C939        C  0.77660469  0.46208970  0.68776759    -0.52500
C940        C  0.80467336  0.46306387  0.67091323     0.11600
H941        H  0.76191670  0.41213549  0.75785147     0.16100
H942        H  0.85257243  0.46364184  0.68498682     0.01900
H943        H  0.81380747  0.51472119  0.75790232     0.16400
H944        H  0.75532149  0.46015435  0.67340118     0.16200
C945        C  0.69941474  0.47630681  0.75386306     0.88000
C946        C  0.66787022  0.44102156  0.74492093    -0.52200
C947        C  0.63757047  0.43587920  0.76041541     0.11000
C948        C  0.64156362  0.46646175  0.78344754     0.21900
C949        C  0.69008707  0.50250790  0.74172665    -0.52900
C950        C  0.65984351  0.49734495  0.75722658     0.11100
C951        C  0.69903214  0.47860304  0.79545359    -0.52500
C952        C  0.66861445  0.47288510  0.81130693     0.11600
H953        H  0.66955955  0.42147806  0.72886559     0.16100
H954        H  0.61692955  0.46225694  0.79597724     0.01900
H955        H  0.70564320  0.52290710  0.72229055     0.16400
H956        H  0.72144856  0.48476909  0.81074534     0.16200
C957        C  0.79038427  0.29040474  0.97661799     0.88000
C958        C  0.78950233  0.29196758  0.93501590    -0.52200
C959        C  0.81504468  0.32226425  0.91991145     0.11000
C960        C  0.83962489  0.34773866  0.94801565     0.21900
C961        C  0.82655642  0.29760024  0.98392608    -0.52900
C962        C  0.85231146  0.32763474  0.96909390     0.11100
C963        C  0.79029750  0.32253229  0.99087026    -0.52500
C964        C  0.81592179  0.35254218  0.97565920     0.11600
H965        H  0.77024988  0.27084777  0.91917176     0.16100
H966        H  0.86062706  0.37226216  0.93598424     0.01900
H967        H  0.83205956  0.29830837  0.50528099     0.16400
H968        H  0.77038244  0.33732249  0.51116226     0.16200
C969        C  0.70010557  0.23245056  0.51379619     0.88000
C970        C  0.70349927  0.23537192  0.55518209    -0.52200
C971        C  0.67749652  0.20836169  0.57425217     0.11000
C972        C  0.64953119  0.18106868  0.54971590     0.21900
C973        C  0.69603021  0.19754231  0.50363056    -0.52900
C974        C  0.66947612  0.17067514  0.52239040     0.11100
C975        C  0.66481450  0.22789171  0.50759341    -0.52500
C976        C  0.63824452  0.20110473  0.52628861     0.11600
H977        H  0.72521834  0.25678390  0.56826498     0.16100
H978        H  0.62773823  0.15907337  0.56453559     0.01900
H979        H  0.70887142  0.17743862  0.98532139     0.16400
H980        H  0.66092835  0.23075447  0.98515983     0.16200
C981        C  0.51947050  0.21041661  0.99364983     0.88000
C982        C  0.52202603  0.21072460  0.95184873    -0.52200
C983        C  0.52669245  0.18546920  0.93671863     0.11000
C984        C  0.52722239  0.16148553  0.96515857     0.21900
C985        C  0.48972922  0.17429086  0.00357669    -0.52900
C986        C  0.49379488  0.14870941  0.98869186     0.11100
C987        C  0.55199349  0.21116388  0.00558345    -0.52500
C988        C  0.55613186  0.18561969  0.99047622     0.11600
H989        H  0.51993269  0.22932241  0.93590590     0.16100
H990        H  0.53055696  0.14059625  0.95318320     0.01900
H991        H  0.46972720  0.17515552  0.52617130     0.16400
H992        H  0.57181365  0.23843277  0.51920391     0.16200
C993        C  0.53562288  0.30715950  0.51760945     0.88000
C994        C  0.53498717  0.30725044  0.55937414    -0.52200
C995        C  0.53344794  0.33412472  0.57525824     0.11000
C996        C  0.53379033  0.35905396  0.54732631     0.21900
C997        C  0.50403381  0.30892547  0.50763672    -0.52900
C998        C  0.50313798  0.33613371  0.52314100     0.11100
C999        C  0.56660670  0.34235515  0.50660026    -0.52500
C1000       C  0.56585291  0.36959619  0.52219429     0.11600
H1001       H  0.53618700  0.28775803  0.57461984     0.16100
H1002       H  0.53300256  0.38121795  0.55977515     0.01900
H1003       H  0.48519785  0.28499687  0.99037966     0.16400
H1004       H  0.58839410  0.33864179  0.98410280     0.16200
C1005       C  0.77551005  0.47279698  0.50702584     0.88000
C1006       C  0.77004892  0.47219878  0.54850537    -0.52200
C1007       C  0.79478636  0.47140132  0.56752205     0.11000
C1008       C  0.82303087  0.47096031  0.54282977     0.21900
C1009       C  0.81182303  0.50373529  0.49930337    -0.52900
C1010       C  0.83667021  0.50266701  0.51800917     0.11100
C1011       C  0.77883505  0.44129065  0.49822292    -0.52500
C1012       C  0.80365500  0.44026872  0.51687767     0.11600
H1013       H  0.74834235  0.47259623  0.56178388     0.16100
H1014       H  0.84348761  0.47028440  0.55760393     0.01900
H1015       H  0.81805872  0.50830236  0.97855951     0.16400
H1016       H  0.76512525  0.40578010  0.97704925     0.16200
C1017       C  0.70818420  0.47673641  0.97189042     0.88000
C1018       C  0.70972424  0.47339056  0.93053071    -0.52200
C1019       C  0.68188022  0.46975495  0.91373749     0.11000
C1020       C  0.65465393  0.47012376  0.94032359     0.21900
C1021       C  0.69553437  0.51828701  0.48951235    -0.52900
C1022       C  0.67475366  0.50362839  0.96250765     0.11100
C1023       C  0.67397734  0.44515191  0.98461593    -0.52500
C1024       C  0.64587800  0.44159696  0.96817802     0.11600
H1025       H  0.73111908  0.47357613  0.91569454     0.16100
H1026       H  0.63171353  0.46717138  0.92714661     0.01900
H1027       H  0.71166467  0.54007797  0.50672957     0.16400
H1028       H  0.67240966  0.43799763  0.50913730     0.16200
In1029     In  0.42864485  0.42536693  0.78807183     1.36900
C1030       C  0.48169996  0.48081440  0.75942695     0.79100
O1031       O  0.46662513  0.40933950  0.77412286    -0.59300
O1032       O  0.41414423  0.37246981  0.76535659    -0.50200
C1033       C  0.42506469  0.41792177  0.85970938     0.71800
O1034       O  0.44768106  0.44401036  0.84263495    -0.45100
C1035       C  0.38197592  0.44041686  0.76812153     0.76500
O1036       O  0.47758153  0.47540648  0.79321163    -0.57000
O1037       O  0.38573594  0.41764320  0.75195526    -0.47000
O1038       O  0.45844345  0.45803813  0.74019413    -0.53400
C1039       C  0.44517666  0.37990662  0.76294422     0.86700
O1040       O  0.40268213  0.39438973  0.84011423    -0.55300
O1041       O  0.39930444  0.45266610  0.79604926    -0.58600
In1042     In  0.56555119  0.56547923  0.71474327     1.36900
C1043       C  0.51156137  0.51095940  0.74370760     0.79100
O1044       O  0.58364327  0.52806715  0.71019605    -0.59300
O1045       O  0.61484313  0.57484234  0.73846827    -0.50200
C1046       C  0.56968839  0.57739145  0.64372266     0.71800
O1047       O  0.54247359  0.55708799  0.66122453    -0.45100
C1048       C  0.55605496  0.61264286  0.74801363     0.76500
O1049       O  0.51627949  0.51572531  0.70984412    -0.57000
O1050       O  0.58397340  0.61309087  0.75025144    -0.47000
O1051       O  0.53465023  0.53392957  0.76292194    -0.53400
C1052       C  0.60981175  0.54579996  0.72865825     0.86700
O1053       O  0.59596069  0.59344096  0.66274275    -0.55300
O1054       O  0.53468003  0.58991815  0.72748951    -0.58600
In1055     In  0.43556151  0.41993427  0.97043798     1.36900
C1056       C  0.49211500  0.47234790  0.99628084     0.79100
O1057       O  0.41679891  0.45574017  0.98367690    -0.59300
O1058       O  0.39162621  0.41569128  0.50724113    -0.50200
C1059       C  0.42659340  0.41673116  0.89927574     0.71800
O1060       O  0.45011778  0.44201189  0.91548850    -0.45100
C1061       C  0.45011405  0.37290730  0.98928645     0.76500
O1062       O  0.48724890  0.46702170  0.96274820    -0.57000
O1063       O  0.41980365  0.37118613  0.48672604    -0.47000
O1064       O  0.46597574  0.45906911  0.51246493    -0.53400
C1065       C  0.38867112  0.43352359  0.99831656     0.86700
O1066       O  0.40618119  0.39176242  0.91960397    -0.55300
O1067       O  0.46474980  0.39282998  0.96275819    -0.58600
In1068     In  0.56502592  0.57285542  0.53220083     1.36900
C1069       C  0.51379835  0.51579766  0.50548410     0.79100
O1070       O  0.52947524  0.59248140  0.52613502    -0.59300
O1071       O  0.58104892  0.62451504  0.50654230    -0.50200
C1072       C  0.56945954  0.57933219  0.60408511     0.71800
O1073       O  0.54202501  0.56079175  0.58793306    -0.45100
C1074       C  0.61320377  0.55955488  0.50818456     0.76500
O1075       O  0.51954432  0.52023873  0.53891079    -0.57000
O1076       O  0.61337733  0.58604441  0.49806609    -0.47000
O1077       O  0.54489188  0.52558002  0.98897751    -0.53400
C1078       C  0.55111346  0.61986897  0.51036085     0.86700
O1079       O  0.59556015  0.59714242  0.58341270    -0.55300
O1080       O  0.58970910  0.54126299  0.53109612    -0.58600
C1081       C  0.63674174  0.54936948  0.49415616    -0.11700
C1082       C  0.66127022  0.52549100  0.97242965    -0.13300
C1083       C  0.73658822  0.49530057  0.49371888    -0.14900
C1084       C  0.74669669  0.47237182  0.48711680    -0.30100
H1085       H  0.75128603  0.51687561  0.51181815     0.14100
H1086       H  0.73323262  0.43469971  0.96615163     0.14700
C1087       C  0.47802142  0.34505394  0.51401650    -0.11700
C1088       C  0.46291620  0.35221856  0.00232767    -0.13300
C1089       C  0.61091471  0.41141273  0.97485410    -0.14900
C1090       C  0.59465078  0.40555869  0.51698123    -0.30100
H1091       H  0.59603978  0.40318099  0.45960266     0.14100
H1092       H  0.61107313  0.41618248  0.03212221     0.14700
C1093       C  0.53764970  0.27742197  0.50067127    -0.14900
C1094       C  0.51548274  0.23942163  0.00944832    -0.30100
H1095       H  0.55933240  0.28310334  0.48216404     0.14100
H1096       H  0.49345880  0.23362366  0.02740108     0.14700
C1097       C  0.60240763  0.19358321  0.52445635    -0.14900
C1098       C  0.58862966  0.18553529  0.99224082    -0.30100
H1099       H  0.58681468  0.17911844  0.04909636     0.14100
H1100       H  0.60143207  0.19000323  0.46716591     0.14700
C1101       C  0.80950471  0.41103102  0.51362621    -0.14900
C1102       C  0.81703938  0.38555119  0.98049459    -0.30100
H1103       H  0.80644511  0.39667271  0.53810250     0.14100
H1104       H  0.82100658  0.40054623  0.95622985     0.14700
C1105       C  0.76147905  0.25741583  0.99345612    -0.14900
C1106       C  0.72899366  0.26289784  0.49355252    -0.30100
H1107       H  0.76891691  0.25844894  0.51459916     0.14100
H1108       H  0.72267997  0.27800164  0.47655612     0.14700
C1109       C  0.63102098  0.53262945  0.73900714    -0.11700
C1110       C  0.64527619  0.51776137  0.74778180    -0.13300
C1111       C  0.66272634  0.47300260  0.85157316    -0.14900
C1112       C  0.68011958  0.46474826  0.87379300    -0.30100
H1113       H  0.64518569  0.48080032  0.86259467     0.14100
H1114       H  0.69647879  0.45581839  0.86185184     0.14700
C1115       C  0.81021906  0.46365288  0.63035789    -0.14900
C1116       C  0.79313477  0.47238437  0.60799327    -0.30100
H1117       H  0.82837064  0.45672777  0.61913133     0.14100
H1118       H  0.77586980  0.48023383  0.61965635     0.14700
C1119       C  0.74499945  0.46115032  0.74696517    -0.14900
C1120       C  0.73331065  0.48180949  0.73781178    -0.30100
H1121       H  0.72958938  0.44054520  0.76629078     0.14100
H1122       H  0.74810287  0.50239726  0.71832298     0.14700
C1123       C  0.67905066  0.20719125  0.61447557    -0.14900
C1124       C  0.66094861  0.17901063  0.63559425    -0.30100
H1125       H  0.69762608  0.23120269  0.62702514     0.14100
H1126       H  0.64124370  0.15500289  0.62406963     0.14700
C1127       C  0.79085216  0.31642198  0.85946586    -0.14900
C1128       C  0.81852095  0.33021397  0.88028597    -0.30100
H1129       H  0.76547402  0.30046331  0.87235283     0.14100
H1130       H  0.84411358  0.34687970  0.86827783     0.14700
C1131       C  0.81189247  0.39038128  0.76146360    -0.14900
C1132       C  0.81343918  0.40333700  0.72827536    -0.30100
H1133       H  0.81249554  0.40474038  0.78579377     0.14100
H1134       H  0.81511875  0.39017248  0.70390965     0.14700
C1135       C  0.74346360  0.26337927  0.73988350    -0.14900
C1136       C  0.73192391  0.23013277  0.74684539    -0.30100
H1137       H  0.72935130  0.26955022  0.72140259     0.14100
H1138       H  0.74567296  0.22327806  0.76502226     0.14700
C1139       C  0.47195962  0.34333615  0.73841784    -0.11700
C1140       C  0.45652067  0.35744752  0.74847618    -0.13300
C1141       C  0.52021583  0.31249567  0.63866450    -0.14900
C1142       C  0.53173158  0.33903414  0.61550636    -0.30100
H1143       H  0.51085996  0.28695642  0.62760426     0.14100
H1144       H  0.54011431  0.36463165  0.62581330     0.14700
C1145       C  0.58757029  0.38961793  0.72817254    -0.14900
C1146       C  0.60484212  0.40238818  0.75902097    -0.30100
H1147       H  0.59626946  0.40518568  0.70368300     0.14100
H1148       H  0.59459346  0.38822824  0.78432503     0.14700
C1149       C  0.54269031  0.20830850  0.87397275    -0.14900
C1150       C  0.53058537  0.18139889  0.89670326    -0.30100
H1151       H  0.55163419  0.23372834  0.88538643     0.14100
H1152       H  0.52239106  0.15589432  0.88608487     0.14700
C1153       C  0.59488556  0.18528853  0.77323444    -0.14900
C1154       C  0.60466421  0.18108706  0.73926100    -0.30100
H1155       H  0.60837361  0.18440491  0.79646327     0.14100
H1156       H  0.58940780  0.17910555  0.71638187     0.14700
C1157       C  0.51518480  0.26352267  0.76027708    -0.14900
C1158       C  0.53753757  0.25277199  0.75300205    -0.30100
H1159       H  0.49481020  0.25061421  0.78103631     0.14100
H1160       H  0.55769534  0.26602975  0.73206966     0.14700
C1161       C  0.64142698  0.09146060  0.01229505    -0.11700
C1162       C  0.65828575  0.13528584  0.51397732    -0.13300
C1163       C  0.45844948  0.09017004  0.51888456    -0.11700
C1164       C  0.47122629  0.11317555  0.99871194    -0.13300
C1165       C  0.64186500  0.10566515  0.73625787    -0.11700
C1166       C  0.62789242  0.07716513  0.74915189    -0.13300
C1167       C  0.46215048  0.09688375  0.77778751    -0.11700
C1168       C  0.47936418  0.12727346  0.78439808    -0.13300
C1169       C  0.51998599  0.86050016  0.74707924    -0.11700
C1170       C  0.53644648  0.88966133  0.75785065    -0.13300
C1171       C  0.53318211  0.64897852  0.78126478    -0.11700
C1172       C  0.54758968  0.63498205  0.76798032    -0.13300
C1173       C  0.48779126  0.72681106  0.76258601    -0.14900
C1174       C  0.46312224  0.73460582  0.76875470    -0.30100
H1175       H  0.50996500  0.74275114  0.74469435     0.14100
H1176       H  0.44129224  0.71857900  0.78704516     0.14700
C1177       C  0.36218131  0.45413933  0.75438875    -0.11700
C1178       C  0.35077146  0.47125189  0.74393608    -0.13300
C1179       C  0.40930126  0.58695541  0.74357865    -0.14900
C1180       C  0.41858871  0.59906863  0.77758608    -0.30100
H1181       H  0.42689763  0.59983753  0.72050924     0.14100
H1182       H  0.40206111  0.58491974  0.80086228     0.14700
C1183       C  0.24769126  0.50557661  0.74625774    -0.14900
C1184       C  0.28059986  0.52877350  0.75386638    -0.30100
H1185       H  0.24211585  0.48406267  0.72834257     0.14100
H1186       H  0.28546214  0.54998967  0.77199220     0.14700
C1187       C  0.19099718  0.57632618  0.76524412    -0.14900
C1188       C  0.19155304  0.59039687  0.73315133    -0.30100
H1189       H  0.19000348  0.58879809  0.79050491     0.14100
H1190       H  0.18954805  0.57672984  0.70785091     0.14700
C1191       C  0.34781150  0.87252599  0.79239394    -0.11700
C1192       C  0.36178878  0.90253794  0.78412864    -0.13300
C1193       C  0.40368894  0.80003800  0.74893409    -0.14900
C1194       C  0.39086852  0.80097794  0.78249308    -0.30100
H1195       H  0.39169125  0.80208436  0.72499185     0.14100
H1196       H  0.40461564  0.80179561  0.80630013     0.14700
C1197       C  0.26377641  0.74837989  0.76494454    -0.14900
C1198       C  0.25294154  0.71476069  0.76799916    -0.30100
H1199       H  0.25047745  0.75641204  0.74750805     0.17700
H1200       H  0.26671859  0.70751172  0.78572551     0.14700
C1201       C  0.55002160  0.89858218  0.02017307    -0.11700
C1202       C  0.53680813  0.88411198  0.53085216    -0.13300
C1203       C  0.47457437  0.81213897  0.62887128    -0.14900
C1204       C  0.46254858  0.78449602  0.65042548    -0.30100
H1205       H  0.48203891  0.83712224  0.64050460     0.14100
H1206       H  0.45426544  0.75960079  0.63803743     0.14700
C1207       C  0.52594716  0.65702300  0.48864311    -0.11700
C1208       C  0.54108259  0.64295492  0.49728700    -0.13300
C1209       C  0.46773107  0.66479929  0.87840726    -0.14900
C1210       C  0.47707976  0.64865267  0.90113642    -0.30100
H1211       H  0.45661514  0.67944784  0.88959438     0.14100
H1212       H  0.48751031  0.63323961  0.89040351     0.14700
C1213       C  0.49254903  0.75866718  0.51393645    -0.14900
C1214       C  0.46932384  0.72524723  0.52013827    -0.30100
H1215       H  0.51433678  0.76563340  0.49510156     0.14100
H1216       H  0.45290405  0.70471652  0.03559244     0.14700
C1217       C  0.35371006  0.46732090  0.51983565    -0.11700
C1218       C  0.36521221  0.44301291  0.01426540    -0.13300
C1219       C  0.32266990  0.51539947  0.61829780    -0.14900
C1220       C  0.34892171  0.52805419  0.64114813    -0.30100
H1221       H  0.29666663  0.50433189  0.62985535     0.14100
H1222       H  0.37509089  0.53797711  0.63062254     0.14700
C1223       C  0.41383456  0.58331702  0.99880976    -0.14900
C1224       C  0.39771510  0.58358330  0.52366090    -0.30100
H1225       H  0.40397889  0.56803733  0.97427427     0.14100
H1226       H  0.41054978  0.59611158  0.54852007     0.14700
C1227       C  0.21700948  0.52668835  0.88398328    -0.14900
C1228       C  0.19042955  0.51778182  0.86227381    -0.30100
H1229       H  0.24172439  0.53286472  0.87168605     0.14100
H1230       H  0.16580966  0.51255130  0.87400409     0.14700
C1231       C  0.26339605  0.52578432  0.00489067    -0.14900
C1232       C  0.27204715  0.50830741  0.49878654    -0.30100
H1233       H  0.27595589  0.55212578  0.52389102     0.14100
H1234       H  0.25859240  0.48080532  0.98101738     0.14700
C1235       C  0.18667759  0.65377395  0.61952476    -0.14900
C1236       C  0.21205131  0.67045639  0.64321131    -0.30100
H1237       H  0.16121159  0.63394188  0.62914302     0.14100
H1238       H  0.23757252  0.68945375  0.63283746     0.14700
C1239       C  0.19374747  0.60152490  0.51567218    -0.14900
C1240       C  0.20127938  0.58754192  0.98039445    -0.30100
H1241       H  0.19116115  0.58618189  0.53914038     0.14100
H1242       H  0.20527727  0.60338218  0.95688958     0.14700
C1243       C  0.36065500  0.86363458  0.00816016    -0.11700
C1244       C  0.36617722  0.89986699  0.52381350    -0.13300
C1245       C  0.34988494  0.80270456  0.90387628    -0.14900
C1246       C  0.32183043  0.79041958  0.88354938    -0.30100
H1247       H  0.37546915  0.81844944  0.89154769     0.14100
H1248       H  0.29653324  0.77585226  0.89689994     0.14700
C1249       C  0.42067276  0.81393826  0.52931571    -0.14900
C1250       C  0.41412672  0.80152036  0.00134144    -0.30100
H1251       H  0.40596918  0.81361597  0.55365044     0.14100
H1252       H  0.43185182  0.80828995  0.97788053     0.14700
C1253       C  0.28526210  0.73458367  0.01670471    -0.14900
C1254       C  0.24824498  0.73084155  0.51053725    -0.30100
H1255       H  0.28920318  0.71749291  0.03330636     0.14100
H1256       H  0.24223695  0.74669850  0.49442708     0.14700
C1257       C  0.09630782  0.62899428  0.00563098    -0.11700
C1258       C  0.12217969  0.64470567  0.51912593    -0.13300
C1259       C  0.87300786  0.52614716  0.51081670    -0.11700
C1260       C  0.90384074  0.52885755  0.00186695    -0.13300
C1261       C  0.88782766  0.34193635  0.97812302    -0.11700
C1262       C  0.91657213  0.36933646  0.49069687    -0.13300
C1263       C  0.13779237  0.47254557  0.98289071    -0.11700
C1264       C  0.10621475  0.45923170  0.49437203    -0.13300
C1265       C  0.09711340  0.62685989  0.74699671    -0.11700
C1266       C  0.12754231  0.64106927  0.73861933    -0.13300
C1267       C  0.90350009  0.53610292  0.74322423    -0.11700
C1268       C  0.87445776  0.51958605  0.73251253    -0.13300
C1269       C  0.89972985  0.34811178  0.75323408    -0.11700
C1270       C  0.86979486  0.33433646  0.76316137    -0.13300
C1271       C  0.12051938  0.46055464  0.76250817    -0.11700
C1272       C  0.09100224  0.44578741  0.75321799    -0.13300
loop_ 
_geom_bond_atom_site_label_1 
_geom_bond_atom_site_label_2 
_geom_bond_distance 
_geom_bond_site_symmetry_2 
_ccdc_geom_bond_type 
In1           O3   2.234       .  S
In1           O4   2.272       .  S
In1          O12   2.288       .  S
In1           O6   2.202   1_655  S
In1           O8   2.227       .  S
In1           O9   2.283   1_655  S
In1          O10   2.234       .  S
In1          O13   2.225   1_655  S
C2            O8   1.259       .  A
C2           O10   1.261       .  A
C2           C15   1.452       .  S
O3           C11   1.255       .  A
O4           C11   1.261       .  A
C5           O12   1.264   1_455  A
C5            O6   1.256       .  A
C5           C31   1.463       .  S
C7            O9   1.264       .  A
C7           O13   1.253       .  A
C7          C636   1.439       .  S
C11         C633   1.438       .  S
In14         O16   2.234       .  S
In14         O17   2.267       .  S
In14         O25   2.284   1_655  S
In14         O19   2.210       .  S
In14         O21   2.233       .  S
In14         O22   2.276   1_655  S
In14         O23   2.235       .  S
In14         O26   2.231   1_655  S
C15          O21   1.259       .  A
C15          O23   1.259       .  A
O16          C24   1.256       .  A
O17          C24   1.260       .  A
C18          O25   1.265   1_655  A
C18          O19   1.257       .  A
C18          C44   1.466       .  S
C20          O22   1.264       .  A
C20          O26   1.255       .  A
C20         C629   1.439       .  S
C24         C631   1.435       .  S
In27         O29   2.232       .  S
In27         O30   2.271   1_554  S
In27         O38   2.291       .  S
In27         O32   2.200       .  S
In27         O34   2.219       .  S
In27         O35   2.275   1_454  S
In27         O39   2.230   1_455  S
In27        O672   2.244   1_554  S
C28          O34   1.257       .  A
C28         O672   1.261   1_554  A
C28         C677   1.451   1_554  S
O29          C37   1.255       .  A
O30          C37   1.261   1_556  A
C31          O38   1.264       .  A
C31          O32   1.254       .  A
C33          O35   1.263   1_554  A
C33          O39   1.255       .  A
C33         C626   1.437   1_554  S
O36        In663   2.229       .  S
O36         C664   1.259       .  A
C37         C628   1.437   1_554  S
In40         O42   2.234   1_655  S
In40         O51   2.284   1_655  S
In40         O45   2.210       .  S
In40         O47   2.224   1_655  S
In40         O52   2.221       .  S
In40        O679   2.266   1_655  S
In40        O684   2.278       .  S
In40        O685   2.232       .  S
C41          O47   1.259       .  A
C41         O685   1.261   1_455  A
C41         C664   1.450       .  S
O42          C50   1.256       .  A
O43        In676   2.275   1_554  S
O43         C686   1.262   1_554  A
C44          O51   1.264   1_655  A
C44          O45   1.256       .  A
C46          O52   1.254       .  A
C46         O684   1.264       .  A
C46         C624   1.437       .  S
O48        In676   2.287   1_655  S
O48         C682   1.265       .  A
O49        In676   2.223   1_554  S
O49         C677   1.261   1_554  A
C50         O679   1.262       .  A
C50         C621   1.437       .  S
C53          C54   1.531       .  S
C53          C59   1.529       .  S
C53         C617   1.513       .  S
C53         C693   1.538       .  S
C54          C55   1.363       .  D
C54         H697   1.087       .  S
C55          C56   1.543       .  S
C55         C614   1.481       .  S
C56          C60   1.546       .  S
C56          C58   1.546       .  S
C56          H62   1.111       .  S
C57         C689   1.538       .  S
C57         C694   1.368   1_554  D
C57          H63   1.086       .  S
C58         C693   1.369       .  D
C58         C607   1.450       .  S
C59          C60   1.370       .  D
C59          H64   1.084       .  S
C60         C609   1.498       .  S
H61         C690   1.087       .  S
C65          C66   1.538       .  S
C65          C71   1.533       .  S
C65          C69   1.534       .  S
C65         C618   1.517       .  S
C66          C67   1.367       .  D
C66         H709   1.086   1_554  S
C67          C68   1.543       .  S
C67         C603   1.485       .  S
C68          C72   1.543       .  S
C68          C70   1.546       .  S
C68          H74   1.111       .  S
C69          C70   1.365       .  D
C69         H711   1.086   1_554  S
C70         C622   1.448       .  S
C71          C72   1.371       .  D
C71          H76   1.085       .  S
C72         C599   1.498       .  S
H73         C702   1.086       .  S
H75         C705   1.086       .  S
C77          C78   1.533       .  S
C77          C83   1.529       .  S
C77         C595   1.508       .  S
C77         C717   1.533       .  S
C78          C79   1.364       .  D
C78         H721   1.087       .  S
C79          C80   1.550       .  S
C79         C604   1.489       .  S
C80          C84   1.548       .  S
C80          C82   1.545       .  S
C80          H86   1.110       .  S
C81         C713   1.534       .  S
C81         C718   1.365       .  D
C81          H87   1.086   1_556  S
C82         C717   1.365       .  D
C82         C627   1.442       .  S
C83          C84   1.364       .  D
C83          H88   1.087       .  S
C84         C591   1.486       .  S
H85         C714   1.087   1_554  S
C89          C90   1.535       .  S
C89          C95   1.529       .  S
C89          C93   1.533       .  S
C89         C596   1.512       .  S
C90          C91   1.365       .  D
C90         H733   1.087   1_554  S
C91          C92   1.541       .  S
C91         C588   1.480       .  S
C92          C96   1.547       .  S
C92          C94   1.546       .  S
C92          H98   1.110       .  S
C93          C94   1.366       .  D
C93         H735   1.087   1_554  S
C94         C581   1.443       .  S
C95          C96   1.363       .  D
C95         H100   1.087       .  S
C96         C583   1.485       .  S
H97         C726   1.087       .  S
H99         C729   1.086       .  S
C101        C107   1.527       .  S
C101        C738   1.535       .  S
C101        C741   1.536       .  S
C101       C1214   1.510       .  S
C102        C737   1.537   1_554  S
C102        C739   1.363   1_554  D
C102        H109   1.087       .  S
C103        C104   1.546       .  S
C103        C738   1.366       .  D
C103        C587   1.485       .  S
C104        C108   1.549       .  S
C104        C106   1.545       .  S
C104        H110   1.110       .  S
C105        C737   1.536   1_554  S
C105        C742   1.367   1_554  D
C105        H111   1.086       .  S
C106        C741   1.367       .  D
C106       C1207   1.446       .  S
C107        C108   1.361       .  D
C107        H112   1.087       .  S
C108        C574   1.488       .  S
C113        C114   1.538       .  S
C113        C119   1.527       .  S
C113        C117   1.535       .  S
C113        C577   1.517       .  S
C114        C115   1.366       .  D
C114        H757   1.086       .  S
C115        C116   1.544       .  S
C115        C613   1.484       .  S
C116        C120   1.552       .  S
C116        C118   1.551       .  S
C116        H122   1.110       .  S
C117        C118   1.370       .  D
C117        H759   1.086       .  S
C118        C566   1.451       .  S
C119        C120   1.360       .  D
C119        H124   1.087       .  S
C120        C567   1.491       .  S
H121        C750   1.086       .  S
H123        C753   1.087       .  S
C125        C126   1.529       .  S
C125        C131   1.532       .  S
C125        C129   1.533       .  S
C125        C561   1.510       .  S
C126        C127   1.365       .  D
C126        H133   1.087       .  S
C127        C128   1.546       .  S
C127        C610   1.485       .  S
C128        C132   1.544       .  S
C128        C130   1.548       .  S
C128        H134   1.110       .  S
C129        C130   1.366       .  D
C129        H135   1.086       .  S
C130        C555   1.445       .  S
C131        C132   1.363       .  D
C131        H136   1.087       .  S
C132        C558   1.481       .  S
C137        C138   1.531       .  S
C137        C143   1.528       .  S
C137        C141   1.534       .  S
C137        C562   1.508       .  S
C138        C139   1.364       .  D
C138        H145   1.086       .  S
C139        C140   1.548       .  S
C139        C630   1.446       .  S
C140        C144   1.549       .  S
C140        C142   1.549       .  S
C140        H146   1.110       .  S
C141        C142   1.366       .  D
C141        H147   1.087       .  S
C142        C552   1.487       .  S
C143        C144   1.363       .  D
C143        H148   1.087       .  S
C144        C600   1.487       .  S
C149        C150   1.533       .  S
C149        C155   1.544       .  S
C149        C153   1.534       .  S
C149        C547   1.520       .  S
C150        C151   1.368       .  D
C150        H157   1.086       .  S
C151        C152   1.542       .  S
C151        C592   1.496       .  S
C152        C156   1.539       .  S
C152        C154   1.546       .  S
C152        H158   1.111       .  S
C153        C154   1.365       .  D
C153        H159   1.086       .  S
C154        C635   1.447       .  S
C155        C156   1.369       .  D
C155        H160   1.086       .  S
C156        C551   1.485       .  S
C161        C162   1.532       .  S
C161        C167   1.533       .  S
C161        C165   1.542       .  S
C161        C548   1.518       .  S
C162        C163   1.372       .  D
C162        H169   1.084       .  S
C163        C164   1.541       .  S
C163        C584   1.495       .  S
C164        C168   1.541       .  S
C164        C166   1.544       .  S
C164        H170   1.111       .  S
C165        C166   1.372       .  D
C165        H171   1.086       .  S
C166        C542   1.454       .  S
C167        C168   1.362       .  D
C167        H172   1.087       .  S
C168        C543   1.482       .  S
C173        C174   1.536       .  S
C173        C179   1.537       .  S
C173        C177   1.534       .  S
C173        C537   1.515       .  S
C174        C175   1.373       .  D
C174        H181   1.084       .  S
C175        C176   1.540       .  S
C175        C573   1.497       .  S
C176        C180   1.538       .  S
C176        C178   1.541       .  S
C176        H182   1.111       .  S
C177        C178   1.364       .  D
C177        H183   1.086       .  S
C178        C535   1.441       .  S
C179        C180   1.365       .  D
C179        H184   1.086       .  S
C180        C544   1.477       .  S
C185        C186   1.536       .  S
C185        C191   1.534       .  S
C185        C189   1.535       .  S
C185        C538   1.513       .  S
C186        C187   1.374       .  D
C186        H193   1.085       .  S
C187        C188   1.542       .  S
C187        C568   1.501       .  S
C188        C192   1.541       .  S
C188        C190   1.541       .  S
C188        H194   1.111       .  S
C189        C190   1.364       .  D
C189        H195   1.086       .  S
C190        C533   1.440       .  S
C191        C192   1.364       .  D
C191        H196   1.086       .  S
C192        C557   1.480       .  S
In197       O199   2.223   1_565  S
In197       O200   2.286   1_565  S
In197       O208   2.285       .  S
In197       O202   2.190   1_565  S
In197       O204   2.230       .  S
In197       O205   2.271       .  S
In197       O206   2.228       .  S
In197       O209   2.232       .  S
C198        O204   1.258       .  A
C198        O206   1.260       .  A
C198        C211   1.450       .  S
O199        C207   1.253       .  A
O200        C207   1.266       .  A
C201        O208   1.266       .  A
C201        O202   1.256   1_565  A
C201        C227   1.461       .  S
C203        O205   1.262       .  A
C203        O209   1.255       .  A
C203        C556   1.438       .  S
C207        C531   1.442       .  S
In210       O212   2.224   1_565  S
In210       O213   2.270   1_565  S
In210       O221   2.288       .  S
In210       O215   2.191       .  S
In210       O217   2.223       .  S
In210       O218   2.262       .  S
In210       O219   2.239       .  S
In210       O222   2.228       .  S
C211        O217   1.257       .  A
C211        O219   1.260       .  A
O212        C220   1.254       .  A
O213        C220   1.262       .  A
C214        O221   1.265       .  A
C214        O215   1.254       .  A
C214        C240   1.460   1_565  S
C216        O218   1.261       .  A
C216        O222   1.256       .  A
C216        C534   1.433       .  S
C220        C530   1.434       .  S
In223       O225   2.234       .  S
In223       O226   2.277       .  S
In223       O234   2.290       .  S
In223       O228   2.191   1_565  S
In223       O230   2.224       .  S
In223       O231   2.273   1_565  S
In223       O235   2.221   1_565  S
In223       O868   2.235       .  S
C224        O230   1.257       .  A
C224        O868   1.260       .  A
C224        C873   1.449       .  S
O225        C233   1.255       .  A
O226        C233   1.263       .  A
C227        O234   1.265       .  A
C227        O228   1.254   1_565  A
C229        O231   1.263       .  A
C229        O235   1.255       .  A
C229        C527   1.435       .  S
O232       In859   2.229       .  S
O232        C860   1.261       .  A
C233        C608   1.441       .  S
In236       O238   2.234   1_545  S
In236       O247   2.279       .  S
In236       O241   2.188   1_545  S
In236       O243   2.229       .  S
In236       O248   2.223       .  S
In236       O875   2.261   1_545  S
In236       O880   2.279       .  S
In236       O881   2.239   1_545  S
C237        O243   1.258   1_565  A
C237        O881   1.259       .  A
C237        C860   1.451       .  S
O238        C246   1.255       .  A
O239       In872   2.290       .  S
O239        C882   1.265   1_556  A
C240        O247   1.267       .  A
C240        O241   1.258   1_545  A
C242        O248   1.253       .  A
C242        O880   1.263       .  A
C242        C525   1.436       .  S
O244       In872   2.287   1_544  S
O244        C878   1.263   1_554  A
O245       In872   2.229   1_554  S
O245        C873   1.262       .  A
C246        O875   1.260       .  A
C246        C565   1.433       .  S
C249        C250   1.538       .  S
C249        C255   1.527       .  S
C249        C253   1.534       .  S
C249        C522   1.516       .  S
C250        C251   1.369       .  D
C250        H257   1.086       .  S
C251        C252   1.549       .  S
C251        C517   1.490       .  S
C252        C256   1.550       .  S
C252        C254   1.550       .  S
C252        H258   1.110       .  S
C253        C254   1.366       .  D
C253        H259   1.086       .  S
C254        C532   1.449       .  S
C255        C256   1.361       .  D
C255        H260   1.087       .  S
C256        C513   1.488       .  S
C261        C262   1.533       .  S
C261        C267   1.524       .  S
C261        C265   1.538       .  S
C261        C521   1.512       .  S
C262        C263   1.365       .  D
C262        H269   1.086       .  S
C263        C264   1.550       .  S
C263        C509   1.488       .  S
C264        C268   1.552       .  S
C264        C266   1.550       .  S
C264        H270   1.110       .  S
C265        C266   1.370       .  D
C265        H271   1.086       .  S
C266        C503   1.455       .  S
C267        C268   1.361       .  D
C267        H272   1.087       .  S
C268        C505   1.486       .  S
C273        C274   1.532       .  S
C273        C279   1.529       .  S
C273        C277   1.537       .  S
C273        C499   1.511       .  S
C274        C275   1.364       .  D
C274        H281   1.086       .  S
C275        C276   1.543       .  S
C275        C495   1.479       .  S
C276        C280   1.546       .  S
C276        C278   1.545       .  S
C276        H282   1.110       .  S
C277        C278   1.368       .  D
C277        H283   1.086       .  S
C278        C634   1.445       .  S
C279        C280   1.363       .  D
C279        H284   1.087       .  S
C280        C491   1.486       .  S
C285        C286   1.540       .  S
C285        C291   1.532       .  S
C285        C289   1.530       .  S
C285        C500   1.513       .  S
C286        C287   1.367       .  D
C286        H293   1.087       .  S
C287        C288   1.545       .  S
C287        C518   1.489       .  S
C288        C292   1.542       .  S
C288        C290   1.544       .  S
C288        H294   1.111       .  S
C289        C290   1.362       .  D
C289        H295   1.086       .  S
C290        C529   1.441       .  S
C291        C292   1.371       .  D
C291        H296   1.084       .  S
C292        C488   1.495       .  S
C297        C298   1.535       .  S
C297        C303   1.528       .  S
C297        C301   1.534       .  S
C297        C483   1.505       .  S
C298        C299   1.362       .  D
C298        H305   1.086       .  S
C299        C300   1.540       .  S
C299        C496   1.481       .  S
C300        C304   1.542       .  S
C300        C302   1.544       .  S
C300        H306   1.112       .  S
C301        C302   1.366       .  D
C301        H307   1.086       .  S
C302        C632   1.442       .  S
C303        C304   1.372       .  D
C303        H308   1.084       .  S
C304        C479   1.491       .  S
C309        C310   1.538       .  S
C309        C315   1.527       .  S
C309        C313   1.532       .  S
C309        C484   1.513       .  S
C310        C311   1.366       .  D
C310        H317   1.087       .  S
C311        C312   1.546       .  S
C311        C510   1.486       .  S
C312        C316   1.548       .  S
C312        C314   1.550       .  S
C312        H318   1.111       .  S
C313        C314   1.368       .  D
C313        H319   1.086       .  S
C314        C474   1.445       .  S
C315        C316   1.357       .  D
C315        H320   1.087       .  S
C316        C475   1.484       .  S
C321        C322   1.532       .  S
C321        C327   1.536       .  S
C321        C325   1.529       .  S
C321        C469   1.510       .  S
C322        C323   1.371       .  D
C322        H329   1.085       .  S
C323        C324   1.544       .  S
C323        C492   1.495       .  S
C324        C328   1.545       .  S
C324        C326   1.546       .  S
C324        H330   1.111       .  S
C325        C326   1.361       .  D
C325        H967   1.087       .  S
C326        C625   1.442       .  S
C327        C328   1.367       .  D
C327        H968   1.087       .  S
C328        C466   1.486       .  S
H331        C961   1.086   1_554  S
H332        C963   1.086   1_554  S
C333        C334   1.529       .  S
C333        C339   1.533       .  S
C333        C337   1.536       .  S
C333        C470   1.513   1_554  S
C334        C335   1.364       .  D
C334        H341   1.087       .  S
C335        C336   1.546       .  S
C335        C487   1.485       .  S
C336        C340   1.545       .  S
C336        C338   1.548       .  S
C336        H342   1.109       .  S
C337        C338   1.368       .  D
C337        H979   1.086   1_554  S
C338        C526   1.451       .  S
C339        C340   1.367       .  D
C339        H980   1.087   1_554  S
C340        C461   1.487       .  S
H343        C973   1.086       .  S
H344        C975   1.087       .  S
C345        C346   1.533       .  S
C345        C351   1.537       .  S
C345        C349   1.534       .  S
C345        C458   1.517       .  S
C346        C347   1.373       .  D
C346        H353   1.085       .  S
C347        C348   1.544       .  S
C347        C514   1.501       .  S
C348        C352   1.542       .  S
C348        C350   1.545       .  S
C348        H354   1.111       .  S
C349        C350   1.364       .  D
C349        H991   1.087       .  S
C350        C528   1.446       .  S
C351        C352   1.366       .  D
C351        H992   1.086       .  S
C352        C462   1.481       .  S
H355        C985   1.086       .  S
H356        C987   1.086       .  S
C357        C358   1.535       .  S
C357        C363   1.535       .  S
C357        C361   1.534       .  S
C357        C457   1.513       .  S
C358        C359   1.374       .  D
C358        H365   1.084       .  S
C359        C360   1.540       .  S
C359        C506   1.498       .  S
C360        C364   1.540       .  S
C360        C362   1.544       .  S
C360        H366   1.112       .  S
C361        C362   1.365       .  D
C361       H1003   1.086   1_554  S
C362        C451   1.442       .  S
C363        C364   1.363       .  D
C363       H1004   1.087   1_554  S
C364        C454   1.481       .  S
H367        C997   1.086       .  S
H368        C999   1.086       .  S
C369        C370   1.528       .  S
C369        C375   1.534   1_554  S
C369        C373   1.536   1_554  S
C369        C448   1.507   1_554  S
C370        C371   1.361       .  D
C370        H377   1.088       .  S
C371        C372   1.545       .  S
C371        C480   1.481       .  S
C372        C376   1.542       .  S
C372        C374   1.545       .  S
C372        H378   1.110       .  S
C373        C374   1.366   1_556  D
C373       H1015   1.086       .  S
C374        C623   1.448       .  S
C375        C376   1.366   1_556  D
C375       H1016   1.086       .  S
C376        C465   1.479       .  S
H379       C1009   1.086       .  S
H380       C1011   1.087       .  S
C381        C382   1.535       .  S
C381        C387   1.537       .  S
C381       C1021   1.537       .  S
C381       C1083   1.519       .  S
C382        C383   1.374       .  D
C382        H389   1.084       .  S
C383        C384   1.538       .  S
C383        C476   1.496       .  S
C384        C388   1.541       .  S
C384        C386   1.540       .  S
C384        H390   1.111       .  S
C385       C1017   1.532       .  S
C385       C1022   1.365       .  D
C385        H391   1.086       .  S
C386       C1021   1.366       .  D
C386        C446   1.444       .  S
C387        C388   1.365       .  D
C387       H1028   1.086       .  S
C388        C453   1.482       .  S
H392       C1023   1.087   1_554  S
In393       O395   2.233       .  S
In393       O396   2.298       .  S
In393       O404   2.287       .  S
In393       O398   2.203       .  S
In393       O400   2.219       .  S
In393       O401   2.287       .  S
In393       O402   2.227       .  S
In393       O405   2.238       .  S
C394        O400   1.259       .  A
C394        O402   1.262       .  A
C394        C407   1.448       .  S
O395        C403   1.253       .  A
O396        C403   1.267       .  A
C397        O404   1.265       .  A
C397        O398   1.255       .  A
C397        C423   1.464       .  S
C399        O401   1.266       .  A
C399        O405   1.256       .  A
C399        C541   1.447       .  S
C403        C504   1.448       .  S
In406       O408   2.227       .  S
In406       O409   2.282       .  S
In406       O417   2.288       .  S
In406       O411   2.192       .  S
In406       O413   2.221       .  S
In406       O414   2.263       .  S
In406       O415   2.229       .  S
In406       O418   2.235       .  S
C407        O413   1.258       .  A
C407        O415   1.262       .  A
O408        C416   1.252       .  A
O409        C416   1.263       .  A
C410        O417   1.264       .  A
C410        O411   1.253       .  A
C410        C436   1.459       .  S
C412        O414   1.260       .  A
C412        O418   1.256       .  A
C412        C536   1.435       .  S
C416        C473   1.437       .  S
In419       O421   2.231       .  S
In419       O430   2.284       .  S
In419       O424   2.206       .  S
In419       O426   2.238       .  S
In419       O431   2.216       .  S
In419      O1058   2.273       .  S
In419      O1063   2.285       .  S
In419      O1064   2.224       .  S
C420        O426   1.260       .  A
C420       O1064   1.261       .  A
C420       C1069   1.454       .  S
O421        C429   1.256       .  A
O422      In1055   2.275       .  S
O422       C1065   1.263       .  A
C423        O430   1.264       .  A
C423        O424   1.256       .  A
C425        O431   1.253       .  A
C425       O1063   1.265       .  A
C425        C452   1.437       .  S
O427      In1055   2.266   1_554  S
O427       C1061   1.261   1_554  A
O428      In1055   2.245   1_554  S
O428       C1056   1.261   1_554  A
C429       O1058   1.263       .  A
C429        C582   1.439       .  S
In432       O434   2.223       .  S
In432       O435   2.269       .  S
In432       O443   2.284       .  S
In432       O437   2.192       .  S
In432       O439   2.239       .  S
In432       O440   2.263   1_554  S
In432       O444   2.235       .  S
In432      O1077   2.235   1_554  S
C433        O439   1.258       .  A
C433       O1077   1.260   1_554  A
C433       C1056   1.455   1_554  S
O434        C442   1.255       .  A
O435        C442   1.263       .  A
C436        O443   1.264       .  A
C436        O437   1.256       .  A
C438        O440   1.259   1_554  A
C438        O444   1.256       .  A
C438        C445   1.434   1_554  S
O441      In1068   2.248       .  S
O441       C1069   1.262       .  A
C442        C572   1.434       .  S
C445       C1082   1.205       .  T
C446       C1081   1.207       .  T
C447       C1017   1.509       .  S
C447        C448   1.346       .  D
C447        H449   1.086   1_556  S
C448       H1086   1.086       .  S
H450       C1084   1.087       .  S
C451       C1088   1.206       .  T
C452       C1087   1.208       .  T
C453       C1090   1.346       .  D
C453       H1091   1.087       .  S
C454       C1089   1.346   1_554  D
C454       H1092   1.086       .  S
H455       C1089   1.086       .  S
H456       C1090   1.086       .  S
C457       C1094   1.346       .  D
C457        H459   1.087   1_554  S
C458       C1093   1.347       .  D
C458        H460   1.087       .  S
C461       C1098   1.346   1_554  D
C461       H1099   1.085       .  S
C462       C1097   1.347       .  D
C462       H1100   1.086       .  S
H463       C1097   1.086       .  S
H464       C1098   1.086       .  S
C465       C1102   1.343   1_554  D
C465        H467   1.086       .  S
C466       C1101   1.348       .  D
C466        H468   1.086       .  S
C469       C1106   1.344       .  D
C469       H1107   1.087       .  S
C470       C1105   1.346       .  D
C470        H472   1.087       .  S
H471       C1105   1.087   1_554  S
C473        C474   1.208       .  T
C475        C476   1.342       .  D
C475        H477   1.085       .  S
C476        H478   1.085       .  S
C479        C480   1.344       .  D
C479        H481   1.085       .  S
C480        H482   1.084       .  S
C483        C484   1.346       .  D
C483        H485   1.087       .  S
C484        H486   1.086       .  S
C487        C488   1.346       .  D
C487        H489   1.085       .  S
C488        H490   1.084       .  S
C491        C492   1.347       .  D
C491        H493   1.085       .  S
C492        H494   1.084       .  S
C495        C496   1.347       .  D
C495        H497   1.086       .  S
C496        H498   1.087       .  S
C499        C500   1.344       .  D
C499        H501   1.087       .  S
C500        H502   1.086       .  S
C503        C504   1.214       .  T
C505        C506   1.344       .  D
C505        H507   1.086       .  S
C506        H508   1.086       .  S
C509        C510   1.351       .  D
C509        H511   1.086       .  S
C510        H512   1.086       .  S
C513        C514   1.347       .  D
C513        H515   1.084       .  S
C514        H516   1.084       .  S
C517        C518   1.350       .  D
C517        H519   1.086       .  S
C518        H520   1.086       .  S
C521        C522   1.348       .  D
C521        H523   1.087       .  S
C522        H524   1.086       .  S
C525       C1162   1.207       .  T
C526       C1161   1.211       .  T
C527       C1164   1.206   1_554  T
C528       C1163   1.209       .  T
C529        C530   1.205       .  T
C531        C532   1.210       .  T
C533        C534   1.205       .  T
C535        C536   1.206       .  T
C537        C538   1.346       .  D
C537        H539   1.087       .  S
C538        H540   1.087       .  S
C541        C542   1.213       .  T
C543        C544   1.345       .  D
C543        H545   1.086       .  S
C544        H546   1.087       .  S
C547        C548   1.347       .  D
C547        H549   1.086       .  S
C548        H550   1.088       .  S
C551        C552   1.347       .  D
C551        H553   1.087       .  S
C552        H554   1.086       .  S
C555        C556   1.208       .  T
C557        C558   1.347       .  D
C557        H559   1.086       .  S
C558        H560   1.086       .  S
C561        C562   1.347       .  D
C561        H563   1.087       .  S
C562        H564   1.087       .  S
C565       C1202   1.205       .  T
C566       C1201   1.211       .  T
C567        C568   1.346       .  D
C567        H569   1.085       .  S
C568        H570   1.085       .  S
C571        C742   1.441       .  S
C571        C572   1.205   1_556  T
C573        C574   1.345       .  D
C573        H575   1.085       .  S
C574        H576   1.084       .  S
C577        C578   1.349       .  D
C577        H579   1.086   1_554  S
C578        C737   1.512   1_554  S
C578       H1216   1.088       .  S
H580       C1214   1.087       .  S
C581       C1218   1.206       .  T
C582       C1217   1.209       .  T
C583        C584   1.346       .  D
C583        H585   1.084       .  S
C584        H586   1.085       .  S
C587       C1224   1.350       .  D
C587        H589   1.086       .  S
C588       C1223   1.346   1_554  D
C588        H590   1.086       .  S
C591        C592   1.348       .  D
C591        H593   1.086       .  S
C592        H594   1.085       .  S
C595       C1232   1.347       .  D
C595       H1233   1.088       .  S
C596       C1231   1.346       .  D
C596       H1234   1.087   1_554  S
H597       C1231   1.088       .  S
H598       C1232   1.086       .  S
C599        C600   1.347       .  D
C599        H601   1.085       .  S
C600        H602   1.085       .  S
C603       C1240   1.348   1_554  D
C603        H605   1.086       .  S
C604       C1239   1.350       .  D
C604        H606   1.086       .  S
C607       C1244   1.211       .  T
C608       C1243   1.210       .  T
C609        C610   1.349       .  D
C609        H611   1.084       .  S
C610        H612   1.084       .  S
C613       C1250   1.351       .  D
C613        H615   1.086       .  S
C614       C1249   1.346       .  D
C614        H616   1.086       .  S
C617       C1254   1.345       .  D
C617        H619   1.087       .  S
C618       C1253   1.347       .  D
C618        H620   1.086   1_554  S
C621       C1258   1.207       .  T
C622       C1257   1.209       .  T
C623       C1260   1.210       .  T
C624       C1259   1.207       .  T
C625       C1262   1.206       .  T
C626       C1261   1.207       .  T
C627       C1264   1.206       .  T
C628       C1263   1.207       .  T
C629        C630   1.208       .  T
C631        C632   1.206       .  T
C633        C634   1.208       .  T
C635        C636   1.209       .  T
In637       O639   2.235       .  S
In637       O640   2.274       .  S
In637       O648   2.281       .  S
In637       O642   2.207   1_655  S
In637       O644   2.233       .  S
In637       O645   2.288   1_655  S
In637       O646   2.224       .  S
In637       O649   2.234   1_655  S
C638        O644   1.261       .  A
C638        O646   1.262       .  A
C638        C651   1.451       .  S
O639        C647   1.255       .  A
O640        C647   1.262       .  A
C641        O648   1.264   1_455  A
C641        O642   1.256       .  A
C641        C667   1.462       .  S
C643        O645   1.263       .  A
C643        O649   1.252       .  A
C643       C1272   1.441       .  S
C647       C1269   1.438       .  S
In650       O652   2.247       .  S
In650       O653   2.278       .  S
In650       O661   2.290   1_655  S
In650       O655   2.205       .  S
In650       O657   2.222       .  S
In650       O658   2.291   1_655  S
In650       O659   2.239       .  S
In650       O662   2.235   1_655  S
C651        O657   1.258       .  A
C651        O659   1.261       .  A
O652        C660   1.255       .  A
O653        C660   1.260       .  A
C654        O661   1.266   1_655  A
C654        O655   1.256       .  A
C654        C680   1.467       .  S
C656        O658   1.265       .  A
C656        O662   1.254       .  A
C656       C1265   1.445       .  S
C660       C1267   1.444       .  S
In663       O665   2.217       .  S
In663       O666   2.273       .  S
In663       O674   2.281       .  S
In663       O668   2.202       .  S
In663       O670   2.230       .  S
In663       O671   2.263   1_455  S
In663       O675   2.227   1_455  S
C664        O670   1.259       .  A
O665        C673   1.255       .  A
O666        C673   1.264       .  A
C667        O674   1.265       .  A
C667        O668   1.256       .  A
C669        O671   1.262       .  A
C669        O675   1.256       .  A
C669       C1262   1.434       .  S
C673       C1264   1.434       .  S
In676       O678   2.238       .  S
In676       O687   2.289       .  S
In676       O681   2.207   1_455  S
In676       O683   2.233       .  S
In676       O688   2.227   1_455  S
C677        O683   1.260       .  A
O678        C686   1.256       .  A
C680        O687   1.265   1_655  A
C680        O681   1.256       .  A
C682        O688   1.254       .  A
C682       C1260   1.441   1_556  S
C686       C1257   1.441   1_556  S
C689        C690   1.532       .  S
C689        C695   1.530   1_554  S
C689       C1253   1.514       .  S
C690        C691   1.364   1_554  D
C691        C692   1.550       .  S
C691       C1250   1.489   1_556  S
C692        C696   1.547       .  S
C692        C694   1.545       .  S
C692        H698   1.111       .  S
C693        H699   1.086       .  S
C694       C1243   1.449   1_556  S
C695        C696   1.370       .  D
C695        H700   1.085       .  S
C696       C1245   1.499       .  S
C701        C702   1.541       .  S
C701        C707   1.533       .  S
C701        C705   1.531       .  S
C701       C1254   1.515       .  S
C702        C703   1.368       .  D
C703        C704   1.543       .  S
C703       C1239   1.487       .  S
C704        C708   1.544       .  S
C704        C706   1.545       .  S
C704        H710   1.111       .  S
C705        C706   1.362       .  D
C706       C1258   1.444       .  S
C707        C708   1.370       .  D
C707        H712   1.084       .  S
C708       C1235   1.498       .  S
C713        C714   1.534       .  S
C713        C719   1.530       .  S
C713       C1231   1.509   1_556  S
C714        C715   1.363       .  D
C715        C716   1.545       .  S
C715       C1240   1.483       .  S
C716        C720   1.548       .  S
C716        C718   1.544       .  S
C716        H722   1.110       .  S
C717        H723   1.086       .  S
C718       C1263   1.443       .  S
C719        C720   1.366       .  D
C719        H724   1.087       .  S
C720       C1227   1.488       .  S
C725        C726   1.533       .  S
C725        C731   1.528       .  S
C725        C729   1.532       .  S
C725       C1232   1.511       .  S
C726        C727   1.365       .  D
C727        C728   1.548       .  S
C727       C1224   1.486       .  S
C728        C732   1.548       .  S
C728        C730   1.551       .  S
C728        H734   1.110       .  S
C729        C730   1.366       .  D
C730       C1217   1.446       .  S
C731        C732   1.363       .  D
C731        H736   1.087       .  S
C732       C1219   1.487       .  S
C737        C743   1.530       .  S
C738        H745   1.086       .  S
C739        C740   1.539       .  S
C739       C1223   1.481       .  S
C740        C744   1.537       .  S
C740        C742   1.541       .  S
C740        H746   1.111       .  S
C741        H747   1.086       .  S
C743        C744   1.372       .  D
C743        H748   1.084       .  S
C744       C1210   1.491       .  S
C749        C750   1.538       .  S
C749        C755   1.531       .  S
C749        C753   1.533       .  S
C749       C1213   1.511       .  S
C750        C751   1.367       .  D
C751        C752   1.539       .  S
C751       C1249   1.479       .  S
C752        C756   1.539       .  S
C752        C754   1.541       .  S
C752        H758   1.111       .  S
C753        C754   1.363       .  D
C754       C1202   1.440       .  S
C755        C756   1.370       .  D
C755        H760   1.085       .  S
C756       C1203   1.490       .  S
C761        C762   1.531       .  S
C761        C767   1.537       .  S
C761        C765   1.533       .  S
C761       C1197   1.517       .  S
C762        C763   1.365       .  D
C762        H769   1.087       .  S
C763        C764   1.546       .  S
C763       C1246   1.487       .  S
C764        C768   1.543       .  S
C764        C766   1.549       .  S
C764        H770   1.110       .  S
C765        C766   1.367       .  D
C765        H771   1.086       .  S
C766       C1191   1.449       .  S
C767        C768   1.366       .  D
C767        H772   1.086       .  S
C768       C1194   1.484       .  S
C773        C774   1.537       .  S
C773        C779   1.529       .  S
C773        C777   1.532       .  S
C773       C1198   1.514       .  S
C774        C775   1.369       .  D
C774        H781   1.086       .  S
C775        C776   1.549       .  S
C775       C1266   1.452       .  S
C776        C780   1.549       .  S
C776        C778   1.548       .  S
C776        H782   1.110       .  S
C777        C778   1.364       .  D
C777        H783   1.087       .  S
C778       C1188   1.488       .  S
C779        C780   1.365       .  D
C779        H784   1.087       .  S
C780       C1236   1.488       .  S
C785        C786   1.533       .  S
C785        C791   1.541       .  S
C785        C789   1.536       .  S
C785       C1183   1.519       .  S
C786        C787   1.368       .  D
C786        H793   1.084       .  S
C787        C788   1.544       .  S
C787       C1228   1.499       .  S
C788        C792   1.540       .  S
C788        C790   1.545       .  S
C788        H794   1.111       .  S
C789        C790   1.367       .  D
C789        H795   1.086       .  S
C790       C1271   1.449       .  S
C791        C792   1.368       .  D
C791        H796   1.086       .  S
C792       C1187   1.482       .  S
C797        C798   1.529       .  S
C797        C803   1.534       .  S
C797        C801   1.538       .  S
C797       C1184   1.515       .  S
C798        C799   1.372       .  D
C798        H805   1.085       .  S
C799        C800   1.545       .  S
C799       C1220   1.499       .  S
C800        C804   1.543       .  S
C800        C802   1.544       .  S
C800        H806   1.111       .  S
C801        C802   1.368       .  D
C801        H807   1.086       .  S
C802       C1178   1.449       .  S
C803        C804   1.364       .  D
C803        H808   1.087       .  S
C804       C1179   1.483       .  S
C809        C810   1.525       .  S
C809        C815   1.533       .  S
C809        C813   1.530       .  S
C809       C1173   1.501       .  S
C810        C811   1.358       .  D
C810        H817   1.087       .  S
C811        C812   1.546       .  S
C811       C1209   1.477       .  S
C812        C816   1.545       .  S
C812        C814   1.547       .  S
C812        H818   1.111       .  S
C813        C814   1.365       .  D
C813        H819   1.086       .  S
C814       C1171   1.440       .  S
C815        C816   1.364       .  D
C815        H820   1.087       .  S
C816       C1180   1.481       .  S
C821        C822   1.525       .  S
C821        C827   1.532       .  S
C821        C825   1.530       .  S
C821       C1174   1.497       .  S
C822        C823   1.361       .  D
C822        H829   1.087       .  S
C823        C824   1.547       .  S
C823       C1204   1.480       .  S
C824        C828   1.547       .  S
C824        C826   1.546       .  S
C824        H830   1.110       .  S
C825        C826   1.362       .  D
C825        H831   1.086       .  S
C826       C1169   1.439       .  S
C827        C828   1.365       .  D
C827        H832   1.087       .  S
C828       C1193   1.484       .  S
In833       O835   2.223   1_565  S
In833       O836   2.289   1_565  S
In833       O844   2.286       .  S
In833       O838   2.203   1_565  S
In833       O840   2.217       .  S
In833       O841   2.281       .  S
In833       O842   2.234       .  S
In833       O845   2.231       .  S
C834        O840   1.259       .  A
C834        O842   1.262       .  A
C834        C847   1.449       .  S
O835        C843   1.253       .  A
O836        C843   1.266       .  A
C837        O844   1.265   1_545  A
C837        O838   1.256       .  A
C837        C863   1.465       .  S
C839        O841   1.264       .  A
C839        O845   1.255       .  A
C839       C1192   1.441       .  S
C843       C1167   1.441       .  S
In846       O848   2.241   1_565  S
In846       O849   2.264   1_565  S
In846       O857   2.289       .  S
In846       O851   2.203       .  S
In846       O853   2.233       .  S
In846       O854   2.274       .  S
In846       O855   2.223       .  S
In846       O858   2.212       .  S
C847        O853   1.260       .  A
C847        O855   1.259       .  A
O848        C856   1.257       .  A
O849        C856   1.260       .  A
C850        O857   1.265       .  A
C850        O851   1.256       .  A
C850        C876   1.465       .  S
C852        O854   1.264       .  A
C852        O858   1.253       .  A
C852       C1170   1.431       .  S
C856       C1166   1.438       .  S
In859       O861   2.242       .  S
In859       O862   2.273       .  S
In859       O870   2.292       .  S
In859       O864   2.207   1_565  S
In859       O866   2.230       .  S
In859       O867   2.280   1_565  S
In859       O871   2.229   1_565  S
C860        O866   1.260       .  A
O861        C869   1.257       .  A
O862        C869   1.262       .  A
C863        O870   1.264   1_545  A
C863        O864   1.255       .  A
C865        O867   1.264       .  A
C865        O871   1.254       .  A
C865       C1163   1.439       .  S
C869       C1244   1.443       .  S
In872       O874   2.233   1_556  S
In872       O883   2.292       .  S
In872       O877   2.203       .  S
In872       O879   2.222       .  S
In872       O884   2.239   1_565  S
C873        O879   1.259   1_554  A
O874        C882   1.253       .  A
C876        O883   1.265       .  A
C876        O877   1.255       .  A
C878        O884   1.255       .  A
C878       C1161   1.444   1_556  S
C882       C1201   1.444       .  S
C885        C886   1.534       .  S
C885        C891   1.529       .  S
C885        C889   1.538       .  S
C885       C1158   1.510       .  S
C886        C887   1.364       .  D
C886        H893   1.086       .  S
C887        C888   1.545       .  S
C887       C1153   1.483       .  S
C888        C892   1.546       .  S
C888        C890   1.544       .  S
C888        H894   1.110       .  S
C889        C890   1.367       .  D
C889        H895   1.086       .  S
C890       C1168   1.448       .  S
C891        C892   1.363       .  D
C891        H896   1.087       .  S
C892       C1149   1.483       .  S
C897        C898   1.536       .  S
C897        C903   1.529       .  S
C897        C901   1.533       .  S
C897       C1157   1.513       .  S
C898        C899   1.368       .  D
C898        H905   1.087       .  S
C899        C900   1.546       .  S
C899       C1145   1.490       .  S
C900        C904   1.548       .  S
C900        C902   1.549       .  S
C900        H906   1.110       .  S
C901        C902   1.366       .  D
C901        H907   1.086       .  S
C902       C1139   1.448       .  S
C903        C904   1.363       .  D
C903        H908   1.087       .  S
C904       C1141   1.486       .  S
C909        C910   1.533       .  S
C909        C915   1.528       .  S
C909        C913   1.536       .  S
C909       C1135   1.506       .  S
C910        C911   1.364       .  D
C910        H917   1.087       .  S
C911        C912   1.548       .  S
C911       C1131   1.486       .  S
C912        C916   1.548       .  S
C912        C914   1.544       .  S
C912        H918   1.110       .  S
C913        C914   1.367       .  D
C913        H919   1.086       .  S
C914       C1270   1.445       .  S
C915        C916   1.361       .  D
C915        H920   1.088       .  S
C916       C1127   1.484       .  S
C921        C922   1.537       .  S
C921        C927   1.530       .  S
C921        C925   1.530       .  S
C921       C1136   1.510       .  S
C922        C923   1.364       .  D
C922        H929   1.087       .  S
C923        C924   1.542       .  S
C923       C1154   1.483       .  S
C924        C928   1.546       .  S
C924        C926   1.549       .  S
C924        H930   1.111       .  S
C925        C926   1.365       .  D
C925        H931   1.086       .  S
C926       C1165   1.445       .  S
C927        C928   1.368       .  D
C927        H932   1.085       .  S
C928       C1124   1.497       .  S
C933        C934   1.533       .  S
C933        C939   1.530       .  S
C933        C937   1.538       .  S
C933       C1119   1.515       .  S
C934        C935   1.363       .  D
C934        H941   1.087       .  S
C935        C936   1.545       .  S
C935       C1132   1.485       .  S
C936        C940   1.547       .  S
C936        C938   1.546       .  S
C936        H942   1.111       .  S
C937        C938   1.370       .  D
C937        H943   1.086       .  S
C938       C1268   1.451       .  S
C939        C940   1.370       .  D
C939        H944   1.084       .  S
C940       C1115   1.499       .  S
C945        C946   1.542       .  S
C945        C951   1.530       .  S
C945        C949   1.534       .  S
C945       C1120   1.517       .  S
C946        C947   1.368       .  D
C946        H953   1.086       .  S
C947        C948   1.540       .  S
C947       C1146   1.482       .  S
C948        C952   1.539       .  S
C948        C950   1.543       .  S
C948        H954   1.111       .  S
C949        C950   1.365       .  D
C949        H955   1.086       .  S
C950       C1110   1.443       .  S
C951        C952   1.369       .  D
C951        H956   1.086       .  S
C952       C1111   1.492       .  S
C957        C958   1.536       .  S
C957        C963   1.539       .  S
C957        C961   1.534       .  S
C957       C1105   1.515       .  S
C958        C959   1.371       .  D
C958        H965   1.085       .  S
C959        C960   1.538       .  S
C959       C1128   1.491       .  S
C960        C964   1.538       .  S
C960        C962   1.543       .  S
C960        H966   1.112       .  S
C961        C962   1.364       .  D
C962       C1261   1.444       .  S
C963        C964   1.366       .  D
C964       C1102   1.479       .  S
C969        C970   1.532       .  S
C969        C975   1.531       .  S
C969        C973   1.536       .  S
C969       C1106   1.509       .  S
C970        C971   1.365       .  D
C970        H977   1.086       .  S
C971        C972   1.545       .  S
C971       C1123   1.487       .  S
C972        C976   1.546       .  S
C972        C974   1.543       .  S
C972        H978   1.110       .  S
C973        C974   1.366       .  D
C974       C1162   1.443       .  S
C975        C976   1.364       .  D
C976       C1097   1.483       .  S
C981        C982   1.535       .  S
C981        C987   1.541   1_556  S
C981        C985   1.533   1_556  S
C981       C1094   1.516   1_556  S
C982        C983   1.369       .  D
C982        H989   1.085       .  S
C983        C984   1.538       .  S
C983       C1150   1.492       .  S
C984        C988   1.538       .  S
C984        C986   1.543       .  S
C984        H990   1.112       .  S
C985        C986   1.364   1_554  D
C986       C1164   1.442       .  S
C987        C988   1.367   1_554  D
C988       C1098   1.480       .  S
C993        C994   1.534       .  S
C993        C999   1.536       .  S
C993        C997   1.536       .  S
C993       C1093   1.516       .  S
C994        C995   1.372       .  D
C994       H1001   1.085       .  S
C995        C996   1.541       .  S
C995       C1142   1.495       .  S
C996       C1000   1.542       .  S
C996        C998   1.544       .  S
C996       H1002   1.111       .  S
C997        C998   1.366       .  D
C998       C1087   1.445       .  S
C999       C1000   1.365       .  D
C1000      C1090   1.485       .  S
C1005      C1006   1.532       .  S
C1005      C1011   1.538       .  S
C1005      C1009   1.536       .  S
C1005      C1084   1.518       .  S
C1006      C1007   1.365       .  D
C1006      H1013   1.086       .  S
C1007      C1008   1.543       .  S
C1007      C1116   1.487       .  S
C1008      C1012   1.540       .  S
C1008      C1010   1.544       .  S
C1008      H1014   1.110       .  S
C1009      C1010   1.369       .  D
C1010      C1259   1.444       .  S
C1011      C1012   1.365       .  D
C1012      C1101   1.482       .  S
C1017      C1018   1.526       .  S
C1017      C1023   1.535       .  S
C1018      C1019   1.362       .  D
C1018      H1025   1.087       .  S
C1019      C1020   1.545       .  S
C1019      C1112   1.480       .  S
C1020      C1024   1.543       .  S
C1020      C1022   1.545       .  S
C1020      H1026   1.111       .  S
C1021      H1027   1.086       .  S
C1022      C1082   1.441       .  S
C1023      C1024   1.367       .  D
C1024      C1089   1.482       .  S
In1029     O1031   2.224       .  S
In1029     O1032   2.284       .  S
In1029     O1040   2.291       .  S
In1029     O1034   2.192       .  S
In1029     O1036   2.224       .  S
In1029     O1037   2.276       .  S
In1029     O1038   2.230       .  S
In1029     O1041   2.243       .  S
C1030      O1036   1.259       .  A
C1030      O1038   1.261       .  A
C1030      C1043   1.449       .  S
O1031      C1039   1.253       .  A
O1032      C1039   1.266       .  A
C1033      O1040   1.266       .  A
C1033      O1034   1.255       .  A
C1033      C1059   1.463       .  S
C1035      O1037   1.262       .  A
C1035      O1041   1.255       .  A
C1035      C1177   1.442       .  S
C1039      C1140   1.440       .  S
In1042     O1044   2.234       .  S
In1042     O1045   2.262       .  S
In1042     O1053   2.290       .  S
In1042     O1047   2.203       .  S
In1042     O1049   2.224       .  S
In1042     O1050   2.274       .  S
In1042     O1051   2.232       .  S
In1042     O1054   2.218       .  S
C1043      O1049   1.258       .  A
C1043      O1051   1.261       .  A
O1044      C1052   1.257       .  A
O1045      C1052   1.262       .  A
C1046      O1053   1.263       .  A
C1046      O1047   1.254       .  A
C1046      C1072   1.463       .  S
C1048      O1050   1.262       .  A
C1048      O1054   1.254       .  A
C1048      C1172   1.432       .  S
C1052      C1109   1.436       .  S
In1055     O1057   2.224       .  S
In1055     O1066   2.293       .  S
In1055     O1060   2.195       .  S
In1055     O1062   2.226       .  S
In1055     O1067   2.229       .  S
C1056      O1062   1.258       .  A
O1057      C1065   1.254       .  A
C1059      O1066   1.264       .  A
C1059      O1060   1.254       .  A
C1061      O1067   1.255       .  A
C1061      C1088   1.434   1_556  S
C1065      C1218   1.436   1_556  S
In1068     O1070   2.227       .  S
In1068     O1071   2.283       .  S
In1068     O1079   2.289       .  S
In1068     O1073   2.204       .  S
In1068     O1075   2.220       .  S
In1068     O1076   2.274       .  S
In1068     O1080   2.226       .  S
C1069      O1075   1.257       .  A
O1070      C1078   1.254       .  A
O1071      C1078   1.263       .  A
C1072      O1079   1.263       .  A
C1072      O1073   1.254       .  A
C1074      O1076   1.263       .  A
C1074      O1080   1.255       .  A
C1074      C1081   1.436       .  S
C1078      C1208   1.439       .  S
C1083      C1084   1.349       .  D
C1083      H1085   1.087       .  S
C1093      H1095   1.087       .  S
C1094      H1096   1.086       .  S
C1101      H1103   1.086       .  S
C1102      H1104   1.087       .  S
C1106      H1108   1.087       .  S
C1109      C1110   1.207       .  T
C1111      C1112   1.345       .  D
C1111      H1113   1.084       .  S
C1112      H1114   1.085       .  S
C1115      C1116   1.350       .  D
C1115      H1117   1.084       .  S
C1116      H1118   1.082       .  S
C1119      C1120   1.348       .  D
C1119      H1121   1.087       .  S
C1120      H1122   1.087       .  S
C1123      C1124   1.350       .  D
C1123      H1125   1.084       .  S
C1124      H1126   1.084       .  S
C1127      C1128   1.344       .  D
C1127      H1129   1.087       .  S
C1128      H1130   1.086       .  S
C1131      C1132   1.351       .  D
C1131      H1133   1.086       .  S
C1132      H1134   1.086       .  S
C1135      C1136   1.346       .  D
C1135      H1137   1.088       .  S
C1136      H1138   1.086       .  S
C1139      C1140   1.209       .  T
C1141      C1142   1.346       .  D
C1141      H1143   1.084       .  S
C1142      H1144   1.084       .  S
C1145      C1146   1.348       .  D
C1145      H1147   1.085       .  S
C1146      H1148   1.085       .  S
C1149      C1150   1.345       .  D
C1149      H1151   1.087       .  S
C1150      H1152   1.086       .  S
C1153      C1154   1.348       .  D
C1153      H1155   1.086       .  S
C1154      H1156   1.086       .  S
C1157      C1158   1.347       .  D
C1157      H1159   1.086       .  S
C1158      H1160   1.087       .  S
C1165      C1166   1.208       .  T
C1167      C1168   1.210       .  T
C1169      C1170   1.204       .  T
C1171      C1172   1.204       .  T
C1173      C1174   1.344       .  D
C1173      H1175   1.087       .  S
C1174      H1176   1.088       .  S
C1177      C1178   1.210       .  T
C1179      C1180   1.348       .  D
C1179      H1181   1.086       .  S
C1180      H1182   1.086       .  S
C1183      C1184   1.349       .  D
C1183      H1185   1.086       .  S
C1184      H1186   1.087       .  S
C1187      C1188   1.349       .  D
C1187      H1189   1.087       .  S
C1188      H1190   1.086       .  S
C1191      C1192   1.210       .  T
C1193      C1194   1.348       .  D
C1193      H1195   1.086       .  S
C1194      H1196   1.086       .  S
C1197      C1198   1.347       .  D
C1197      H1199   1.087       .  S
C1198      H1200   1.087       .  S
C1203      C1204   1.344       .  D
C1203      H1205   1.085       .  S
C1204      H1206   1.085       .  S
C1207      C1208   1.209       .  T
C1209      C1210   1.341       .  D
C1209      H1211   1.085       .  S
C1210      H1212   1.085       .  S
C1213      C1214   1.346       .  D
C1213      H1215   1.087       .  S
C1219      C1220   1.348       .  D
C1219      H1221   1.085       .  S
C1220      H1222   1.085       .  S
C1223      H1225   1.087       .  S
C1224      H1226   1.086       .  S
C1227      C1228   1.350       .  D
C1227      H1229   1.084       .  S
C1228      H1230   1.084       .  S
C1235      C1236   1.348       .  D
C1235      H1237   1.085       .  S
C1236      H1238   1.085       .  S
C1239      H1241   1.086       .  S
C1240      H1242   1.086       .  S
C1245      C1246   1.350       .  D
C1245      H1247   1.084       .  S
C1246      H1248   1.085       .  S
C1249      H1251   1.086       .  S
C1250      H1252   1.086   1_554  S
C1253      H1255   1.087       .  S
C1254      H1256   1.087       .  S
C1265      C1266   1.212       .  T
C1267      C1268   1.211       .  T
C1269      C1270   1.208       .  T
C1271      C1272   1.210       .  T
