geometry optimzed in LAMMPS
_audit_creation_date              2020-12-01 
_audit_creation_method            'lammps2cif' 
_symmetry_space_group_name_H-M    'P1' 
_symmetry_Int_Tables_number       1 
_symmetry_cell_setting            triclinic 
loop_ 
_symmetry_equiv_pos_as_xyz 
  x,y,z 
_cell_length_a                    43.09208503 
_cell_length_b                    30.84397201900308 
_cell_length_c                    39.053736314808354 
_cell_angle_alpha                 89.56653316275269 
_cell_angle_beta                  89.40952463449374 
_cell_angle_gamma                 90.21705605410195 
loop_ 
_atom_site_label 
_atom_site_type_symbol 
_atom_site_fract_x 
_atom_site_fract_y 
_atom_site_fract_z 
_atom_site_charge 
O1          O  0.18202852  0.97783951  0.33193111    -0.82200
C2          C  0.15197853  0.84820886  0.42271885     0.97100
O3          O  0.13926270  0.86581562  0.39706776    -0.71300
O4          O  0.12961462  0.93247261  0.35669604    -0.74900
Al5        Al  0.15984108  0.88782002  0.35567189     1.49000
C6          C  0.12618312  0.96681809  0.37371585     0.92400
O7          O  0.20019677  0.98011815  0.42549904    -0.81100
O8          O  0.24636018  0.92338020  0.40620023    -0.74700
Al9        Al  0.19062166  0.97289644  0.37879021     1.90100
O10         O  0.19429175  0.91509541  0.44726130    -0.73800
O11         O  0.22903248  0.85301578  0.37448742    -0.73600
O12         O  0.18078857  0.84135993  0.42091927    -0.79300
O13         O  0.18567895  0.83595617  0.34889533    -0.77500
O14         O  0.18737326  0.91554649  0.38072214    -1.13600
O15         O  0.17609716  0.91150252  0.31260266    -0.72800
C16         C  0.17902236  0.95223291  0.30725732     0.97900
C17         C  0.19880510  0.95487587  0.45099463     0.94300
Al18       Al  0.21078307  0.88562516  0.40972584     1.55600
O19         O  0.14843361  0.98201853  0.39054662    -0.77400
C20         C  0.21417737  0.82839610  0.35493160     0.98500
C21         C  0.25346094  0.95317950  0.38512154     0.93300
O22         O  0.23308192  0.97034692  0.36657634    -0.82800
O23         O  0.29513794  0.53507544  0.32723735    -0.82200
C24         C  0.33643362  0.64680552  0.43133474     0.97100
O25         O  0.34606390  0.65017472  0.40026699    -0.71300
O26         O  0.36856652  0.57883234  0.37388301    -0.74900
Al27       Al  0.33575644  0.61492176  0.35891169     1.49000
C28         C  0.37073676  0.53896886  0.36819899     0.92400
O29         O  0.31165921  0.51357860  0.41951140    -0.81100
O30         O  0.24411044  0.58937447  0.38415006    -0.74700
Al31       Al  0.30358717  0.52686971  0.37317390     1.90100
O32         O  0.27750544  0.56071677  0.43858284    -0.73800
O33         O  0.27611436  0.66159139  0.38529399    -0.73600
O34         O  0.31077868  0.62873479  0.43726343    -0.79300
O35         O  0.30687710  0.65686155  0.34062125    -0.77500
O36         O  0.30637616  0.58376830  0.38011086    -1.13600
O37         O  0.33209085  0.58200701  0.31458787    -0.72800
C38         C  0.31372429  0.55127394  0.30559825     0.97900
C39         C  0.29359627  0.52697958  0.44262401     0.94300
Al40       Al  0.27955405  0.60842031  0.40878878     1.55600
O41         O  0.34658345  0.51674508  0.36358502    -0.77400
C42         C  0.28489372  0.67527472  0.35642356     0.98500
C43         C  0.23789176  0.54954684  0.38175670     0.93300
O44         O  0.25945015  0.52200013  0.38077208    -0.82800
O45         O  0.17151620  0.02125020  0.15603816    -0.82200
C46         C  0.14924748  0.14891307  0.06153501     0.97100
O47         O  0.13562221  0.13369617  0.08793106    -0.71300
O48         O  0.12173988  0.06835578  0.12899859    -0.74900
Al49       Al  0.15408513  0.11148336  0.12984892     1.49000
C50         C  0.11816840  0.03441036  0.11145500     0.92400
O51         O  0.19473678  0.01285798  0.06478324    -0.81100
O52         O  0.24090671  0.07015687  0.08328423    -0.74700
Al53       Al  0.18278813  0.02393644  0.10985329     1.90100
O54         O  0.19173170  0.07534814  0.03898071    -0.73800
O55         O  0.22442243  0.14335758  0.10999952    -0.73600
O56         O  0.17839436  0.15218832  0.06195760    -0.79300
O57         O  0.18134513  0.16189054  0.13624566    -0.77500
O58         O  0.18141834  0.08128351  0.10578650    -1.13600
O59         O  0.16881296  0.08864820  0.17358821    -0.72800
C60         C  0.17032884  0.04809393  0.17993261     0.97900
C61         C  0.19584999  0.03500827  0.03782995     0.94300
Al62       Al  0.20673259  0.10812822  0.07612638     1.55600
O63         O  0.14097111  0.01705222  0.09645653    -0.77400
C64         C  0.21019989  0.16771327  0.13047326     0.98500
C65         C  0.24684230  0.04110720  0.10506403     0.93300
O66         O  0.22512468  0.02516637  0.12339342    -0.82800
O67         O  0.29203785  0.46530337  0.16032841    -0.82200
C68         C  0.33228756  0.34647216  0.05932398     0.97100
O69         O  0.34165411  0.34521372  0.09024007    -0.71300
O70         O  0.36442797  0.41699032  0.11578491    -0.74900
Al71       Al  0.33069223  0.38156601  0.13043042     1.49000
C72         C  0.36656400  0.45751445  0.11760651     0.92400
O73         O  0.30818983  0.48111342  0.06687937    -0.81100
O74         O  0.23960345  0.40885189  0.10287205    -0.74700
Al75       Al  0.30014445  0.47017185  0.11357231     1.90100
O76         O  0.27518469  0.43247473  0.04832737    -0.73800
O77         O  0.26972710  0.33579127  0.10561143    -0.73600
O78         O  0.30670500  0.36373868  0.05287183    -0.79300
O79         O  0.30108909  0.33991984  0.14911719    -0.77500
O80         O  0.30207186  0.41261674  0.10831073    -1.13600
O81         O  0.32640462  0.41518457  0.17342850    -0.72800
C82         C  0.30925702  0.44724665  0.18188926     0.97900
C83         C  0.29067594  0.46672000  0.04407225     0.94300
Al84       Al  0.27536295  0.38702897  0.08002092     1.55600
O85         O  0.34283484  0.48041977  0.12116335    -0.77400
C86         C  0.27849072  0.32215001  0.13422876     0.98500
C87         C  0.23444118  0.44875055  0.10631561     0.93300
O88         O  0.25657850  0.47542560  0.10735144    -0.82800
O89         O  0.97343210  0.97221582  0.12586743    -0.82200
C90         C  0.39994404  0.84999768  0.06190441     0.97100
O91         O  0.42910843  0.84659493  0.06270633    -0.71300
O92         O  0.44283340  0.92370160  0.04208920    -0.74900
Al93       Al  0.45746972  0.88997832  0.07864962     1.49000
C94         C  0.44813560  0.96361623  0.04102228     0.92400
O95         O  0.39082667  0.97817286  0.09846003    -0.81100
O96         O  0.41803217  0.90514475  0.17619133    -0.74700
Al97       Al  0.43244056  0.97234814  0.11273629     1.90100
O98         O  0.37197228  0.92570354  0.13062810    -0.73800
O99         O  0.43155622  0.83247155  0.13737144    -0.73600
O100        O  0.38613979  0.86278928  0.08879074    -0.79300
O101        O  0.47454191  0.85307110  0.11171540    -0.77500
O102        O  0.43171323  0.91500006  0.10825317    -1.13600
O103        O  0.99072158  0.92827292  0.08607766    -0.72800
C104        C  0.99561840  0.95727075  0.10825941     0.97900
C105        C  0.36813078  0.96048893  0.11400291     0.94300
Al106      Al  0.40420972  0.88323374  0.13147929     1.55600
O107        O  0.44579530  0.98586407  0.06768270    -0.77400
C108        C  0.46033654  0.82683766  0.13104787     0.98500
C109        C  0.41860855  0.94575966  0.18271101     0.93300
O110        O  0.42023016  0.97282553  0.15860798    -0.82800
O111        O  0.51046560  0.52095260  0.12795606    -0.82200
C112        C  0.08474755  0.64879507  0.06287772     0.97100
O113        O  0.05540442  0.65127276  0.06315102    -0.71300
O114        O  0.03699046  0.57668869  0.04283675    -0.74900
Al115      Al  0.02581396  0.60942222  0.08101961     1.49000
C116        C  0.02973624  0.53751873  0.04198806     0.92400
O117        O  0.09299971  0.51904160  0.09466903    -0.81100
O118        O  0.06607128  0.58690408  0.17580766    -0.74700
Al119      Al  0.05149562  0.52416321  0.11115084     1.90100
O120        O  0.11189945  0.56846653  0.12863188    -0.73800
O121        O  0.05417224  0.66260229  0.14016260    -0.73600
O122        O  0.09806838  0.63471645  0.08950767    -0.79300
O123        O  0.01066887  0.64575099  0.11540571    -0.77500
O124        O  0.05220109  0.58188368  0.10831570    -1.13600
O125        O  0.49182285  0.56925038  0.09218416    -0.72800
C126        C  0.48766587  0.53802181  0.11306527     0.97900
C127        C  0.11560365  0.53469831  0.11102136     0.94300
Al128      Al  0.08018972  0.61150639  0.13168534     1.55600
O129        O  0.03650659  0.51328998  0.06674628    -0.77400
C130        C  0.02559823  0.66984024  0.13499151     0.98500
C131        C  0.06562343  0.54603336  0.18160462     0.93300
O132        O  0.06461571  0.52043119  0.15674710    -0.82800
O133        O  0.97982049  0.02207413  0.36383458    -0.82200
C134        C  0.40427470  0.14849788  0.42539016     0.97100
O135        O  0.43364071  0.15014865  0.42612820    -0.71300
O136        O  0.45057195  0.07621153  0.44868652    -0.74900
Al137      Al  0.46305968  0.10762881  0.40998315     1.49000
C138        C  0.45955476  0.03801522  0.45113538     0.92400
O139        O  0.39691311  0.01801245  0.40110460    -0.81100
O140        O  0.42368116  0.08141054  0.31578232    -0.74700
Al141      Al  0.43752147  0.02185078  0.38257430     1.90100
O142        O  0.37741880  0.06429187  0.36378089    -0.73800
O143        O  0.43571122  0.15892308  0.34900514    -0.73600
O144        O  0.39132325  0.13304382  0.39922595    -0.79300
O145        O  0.47870401  0.14283548  0.37502827    -0.77500
O146        O  0.43691559  0.07950039  0.38330199    -1.13600
O147        O  0.99913766  0.07011141  0.39918097    -0.72800
C148        C  0.00286415  0.03917237  0.37821384     0.97900
C149        C  0.37413746  0.03269205  0.38454715     0.94300
Al150      Al  0.40929507  0.10787743  0.35866012     1.55600
O151        O  0.45437617  0.01237744  0.42698882    -0.77400
C152        C  0.46388659  0.16754442  0.35563997     0.98500
C153        C  0.42296705  0.04031370  0.31170990     0.93300
O154        O  0.42259037  0.01568330  0.33754569    -0.82800
O155        O  0.51339005  0.47164091  0.36424095    -0.82200
C156        C  0.08622034  0.34892688  0.43193297     0.97100
O157        O  0.05701810  0.34622189  0.43001489    -0.71300
O158        O  0.03830386  0.42011041  0.45145263    -0.74900
Al159      Al  0.02834414  0.38867003  0.41234891     1.49000
C160        C  0.03158015  0.45933409  0.45335657     0.92400
O161        O  0.09417349  0.48196997  0.40361466    -0.81100
O162        O  0.07206749  0.41437892  0.32035977    -0.74700
Al163      Al  0.05407793  0.47532383  0.38452261     1.90100
O164        O  0.11622875  0.43491727  0.36898319    -0.73800
O165        O  0.06056443  0.33744583  0.35504384    -0.73600
O166        O  0.10126112  0.36597055  0.40701777    -0.79300
O167        O  0.01510678  0.35333806  0.37636994    -0.77500
O168        O  0.05575069  0.41769107  0.38684461    -1.13600
O169        O  0.49408760  0.42490030  0.40139655    -0.72800
C170        C  0.49018734  0.45461413  0.37936146     0.97900
C171        C  0.11791756  0.46791169  0.38807078     0.94300
Al172      Al  0.08526405  0.38978550  0.36443739     1.55600
O173        O  0.03610777  0.48434480  0.42830268    -0.77400
C174        C  0.03193760  0.32845265  0.35906285     0.98500
C175        C  0.07071055  0.45523103  0.31474614     0.93300
O176        O  0.07037132  0.48064381  0.33977286    -0.82800
O177        O  0.26386093  0.02497264  0.63283859    -0.82200
C178        C  0.33544386  0.14426116  0.55459181     0.97100
O179        O  0.30652722  0.13919706  0.55229517    -0.71300
O180        O  0.28969445  0.06120015  0.54033198    -0.74900
Al181      Al  0.27819482  0.10076366  0.57470369     1.49000
C182        C  0.28166839  0.02241710  0.54408586     0.92400
O183        O  0.34362000  0.01485958  0.59243358    -0.81100
O184        O  0.32063154  0.08922147  0.67127543    -0.74700
Al185      Al  0.30402843  0.02150359  0.61238079     1.90100
O186        O  0.36490415  0.06879426  0.62119062    -0.73800
O187        O  0.30378382  0.16045919  0.63382626    -0.73600
O188        O  0.34850893  0.13504092  0.58262176    -0.79300
O189        O  0.26311417  0.14315830  0.60398888    -0.77500
O190        O  0.30469727  0.07862333  0.60450467    -1.13600
O191        O  0.24453839  0.06571357  0.59173464    -0.72800
C192        C  0.24067981  0.03941846  0.61667274     0.97900
C193        C  0.36718358  0.03325277  0.60489932     0.94300
Al194      Al  0.33223488  0.11146651  0.62555678     1.55600
O195        O  0.28589340  0.00387400  0.57197043    -0.77400
C196        C  0.27568922  0.16717058  0.62548899     0.98500
C197        C  0.32223091  0.04899006  0.67860332     0.93300
O198        O  0.32137350  0.02162461  0.65537105    -0.82800
O199        O  0.23265862  0.47036096  0.62866642    -0.82200
C200        C  0.15486189  0.35229832  0.55946966     0.97100
O201        O  0.18410023  0.35137901  0.55975992    -0.71300
O202        O  0.20493171  0.42703728  0.54178051    -0.74900
Al203      Al  0.21407499  0.39036465  0.57882928     1.49000
C204        C  0.21385508  0.46574710  0.54252981     0.92400
O205        O  0.15022208  0.48692445  0.59626972    -0.81100
O206        O  0.17073379  0.41037380  0.67422033    -0.74700
Al207      Al  0.19145037  0.47538728  0.61184697     1.90100
O208        O  0.12808096  0.43456980  0.62587471    -0.73800
O209        O  0.18215703  0.33585749  0.63658234    -0.73600
O210        O  0.14066338  0.36750334  0.58546331    -0.79300
O211        O  0.22692964  0.35045946  0.61217364    -0.77500
O212        O  0.18789560  0.41799174  0.60675666    -1.13600
O213        O  0.24978741  0.42373794  0.59117740    -0.71200
C214        C  0.25510781  0.45282564  0.61286759     0.97900
C215        C  0.12650089  0.47131670  0.61151747     0.94300
Al216      Al  0.15793811  0.38891492  0.62869593     1.55600
O217        O  0.20758534  0.48811368  0.56815155    -0.77400
C218        C  0.21048656  0.32650838  0.63110834     0.98500
C219        C  0.17343748  0.45080905  0.68086855     0.93300
O220        O  0.17786361  0.47723686  0.65687373    -0.82800
O221        O  0.26279110  0.97576877  0.85741370    -0.82200
C222        C  0.33776740  0.85641107  0.92772794     0.97100
O223        O  0.30849643  0.85499286  0.92830357    -0.71300
O224        O  0.29102135  0.93223165  0.94525701    -0.74900
Al225      Al  0.27941580  0.89499362  0.90935337     1.49000
C226        C  0.28360046  0.97151530  0.94349745     0.92400
O227        O  0.34469187  0.98459420  0.88997080    -0.81100
O228        O  0.31973610  0.91119860  0.81213408    -0.74700
Al229      Al  0.30413812  0.97767560  0.87379387     1.90100
O230        O  0.36520076  0.93343558  0.85850437    -0.73800
O231        O  0.30729975  0.83781468  0.85152970    -0.73600
O232        O  0.35132034  0.86890541  0.90033803    -0.79300
O233        O  0.26414932  0.85487468  0.87776273    -0.77500
O234        O  0.30537798  0.92033519  0.87968974    -1.13600
O235        O  0.24531680  0.93026247  0.89673533    -0.72800
C236        C  0.24052666  0.95990705  0.87486202     0.97900
C237        C  0.36798595  0.96818864  0.87534628     0.94300
Al238      Al  0.33357007  0.88954853  0.85730621     1.55600
O239        O  0.28892211  0.99211903  0.91662654    -0.77400
C240        C  0.27911369  0.82936869  0.85900036     0.98500
C241        C  0.31863517  0.95182495  0.80529596     0.93300
O242        O  0.31818689  0.97876653  0.82899706    -0.82800
O243        O  0.22651438  0.52200315  0.86461855    -0.82200
C244        C  0.15135530  0.64470561  0.93045599     0.97100
O245        O  0.18071461  0.64659958  0.93068300    -0.71300
O246        O  0.19958741  0.57199256  0.95049144    -0.74900
Al247      Al  0.21053774  0.60612815  0.91254522     1.49000
C248        C  0.20760582  0.53319552  0.95128010     0.92400
O249        O  0.14444452  0.51462718  0.89945669    -0.81100
O250        O  0.17128713  0.58400828  0.81760644    -0.74700
Al251      Al  0.18559960  0.52091394  0.88237123     1.90100
O252        O  0.12509998  0.56360618  0.86480200    -0.73800
O253        O  0.18198314  0.66037438  0.85359941    -0.73600
O254        O  0.13813407  0.63038052  0.90388589    -0.79300
O255        O  0.22533135  0.64416755  0.87866826    -0.77500
O256        O  0.18443832  0.57863619  0.88523376    -1.13600
O257        O  0.24512110  0.57027338  0.90004811    -0.72800
C258        C  0.24934966  0.53969395  0.87894415     0.97900
C259        C  0.12181100  0.52944834  0.88261099     0.94300
Al260      Al  0.15641628  0.60792178  0.86172909     1.55600
O261        O  0.20146272  0.50928177  0.92641008    -0.77400
C262        C  0.21014848  0.66931371  0.85997911     0.98500
C263        C  0.17202705  0.54308271  0.81214200     0.93300
O264        O  0.17176628  0.51736230  0.83720097    -0.82800
O265        O  0.04288288  0.96333464  0.66262609    -0.82200
C266        C  0.08678764  0.85847167  0.55483993     0.97100
O267        O  0.09534033  0.85332488  0.58595572    -0.71300
O268        O  0.11707860  0.92455556  0.61416650    -0.74900
Al269      Al  0.08435931  0.88733977  0.62806104     1.49000
C270        C  0.11838085  0.96463755  0.61966978     0.92400
O271        O  0.05929836  0.99161545  0.57090207    -0.81100
O272        O  0.49270386  0.91394691  0.60174231    -0.74700
Al273      Al  0.05148354  0.97497516  0.61667762     1.90100
O274        O  0.02716466  0.94349744  0.54947873    -0.73800
O275        O  0.02630714  0.84037821  0.59963116    -0.73600
O276        O  0.06160144  0.87722611  0.54900328    -0.79300
O277        O  0.05461510  0.84519553  0.64565809    -0.77500
O278        O  0.05524922  0.91884217  0.60750760    -1.13600
O279        O  0.08112070  0.91897281  0.67256640    -0.72800
C280        C  0.06350187  0.94989352  0.68247847     0.97900
C281        C  0.04239817  0.97828136  0.54706574     0.94300
Al282      Al  0.02943508  0.89473949  0.57781514     1.55600
O283        O  0.09410869  0.98591502  0.62529859    -0.77400
C284        C  0.03320508  0.82702913  0.62902058     0.98500
C285        C  0.48658067  0.95324841  0.60726328     0.93300
O286        O  0.50780660  0.98131645  0.60883966    -0.82800
O287        O  0.44887285  0.53926694  0.66672758    -0.82200
C288        C  0.40543196  0.64560102  0.55821029     0.97100
O289        O  0.39686762  0.65011928  0.58946351    -0.71300
O290        O  0.37590011  0.57807588  0.61826282    -0.74900
Al291      Al  0.40781144  0.61643313  0.63152840     1.49000
C292        C  0.37480905  0.53775531  0.62300272     0.92400
O293        O  0.43651273  0.51328444  0.57495960    -0.81100
O294        O  0.99986389  0.59554140  0.60510984    -0.74700
Al295      Al  0.44230392  0.52967712  0.62058488     1.90100
O296        O  0.46810082  0.56275212  0.55354820    -0.73800
O297        O  0.46447391  0.66653365  0.60151809    -0.73600
O298        O  0.43076224  0.62715949  0.55176177    -0.79300
O299        O  0.43636605  0.65977540  0.64824515    -0.77500
O300        O  0.43772523  0.58601520  0.61117573    -1.13600
O301        O  0.41136006  0.58584003  0.67629442    -0.72800
C302        C  0.42963596  0.55614894  0.68676216     0.97900
C303        C  0.45512856  0.52631329  0.55223323     0.94300
Al304      Al  0.46330560  0.61155260  0.58080855     1.55600
O305        O  0.39929584  0.51654989  0.62794416    -0.77400
C306        C  0.45686783  0.67962789  0.63076145     0.98500
C307        C  0.00738881  0.55702719  0.61225358     0.93300
O308        O  0.98671164  0.52814769  0.61621917    -0.82800
O309        O  0.06926018  0.02424119  0.83146900    -0.82200
C310        C  0.08699613  0.14879193  0.92870831     0.97100
O311        O  0.10085507  0.13630243  0.90179573    -0.71300
O312        O  0.11566512  0.07175332  0.86220084    -0.74900
Al313      Al  0.08384315  0.11432210  0.85919052     1.49000
C314        C  0.11856340  0.03661236  0.87883991     0.92400
O315        O  0.03868034  0.01101652  0.92025930    -0.81100
O316        O  0.49468055  0.07481229  0.89890944    -0.74700
Al317      Al  0.05456794  0.02536288  0.87655810     1.90100
O318        O  0.04268705  0.07157455  0.94773955    -0.73800
O319        O  0.01385092  0.14569473  0.87890309    -0.73600
O320        O  0.05778035  0.14935866  0.92896086    -0.79300
O321        O  0.05644938  0.16444153  0.85150687    -0.77500
O322        O  0.05586207  0.08271005  0.88180669    -1.13600
O323        O  0.07163798  0.09185255  0.81415371    -0.72800
C324        C  0.07178994  0.05132777  0.80756226     0.97900
C325        C  0.03574492  0.03207455  0.94738704     0.94300
Al326      Al  0.02972036  0.10735178  0.91123605     1.55600
O327        O  0.09536029  0.01849733  0.89303384    -0.77400
C328        C  0.02780353  0.17037907  0.85820894     0.98500
C329        C  0.49006525  0.04690714  0.87588111     0.93300
O330        O  0.51262675  0.03226731  0.85864923    -0.82800
O331        O  0.44635127  0.46967350  0.83532236    -0.82200
C332        C  0.40279620  0.34808425  0.93376020     0.97100
O333        O  0.39405711  0.34777292  0.90255011    -0.71300
O334        O  0.37236024  0.42089008  0.87753572    -0.74900
Al335      Al  0.40603231  0.38593851  0.86301522     1.49000
C336        C  0.37074229  0.46151131  0.87605789     0.92400
O337        O  0.42840123  0.48231740  0.92858958    -0.81100
O338        O  0.99657843  0.40498422  0.89183058    -0.74700
Al339      Al  0.43722214  0.47305252  0.88187480     1.90100
O340        O  0.46077902  0.43269805  0.94685674    -0.73800
O341        O  0.46540459  0.33772444  0.88889363    -0.73600
O342        O  0.42826152  0.36513565  0.94103163    -0.79300
O343        O  0.43576513  0.34565907  0.84421268    -0.77500
O344        O  0.43441430  0.41550768  0.88633939    -1.13600
O345        O  0.41153110  0.42149190  0.82053848    -0.72800
C346        C  0.42910047  0.45376473  0.81281388     0.97900
C347        C  0.44557784  0.46690361  0.95145178     0.94300
Al348      Al  0.46021331  0.38829516  0.91480013     1.55600
O349        O  0.39486453  0.48408190  0.87324257    -0.77400
C350        C  0.45769366  0.32669764  0.85933638     0.98500
C351        C  0.00301748  0.44453671  0.88810026     0.93300
O352        O  0.98188161  0.47261350  0.88702595    -0.82800
C353        C  0.02459705  0.24871627  0.84177538    -0.06200
C354        C  0.00990780  0.20815740  0.84461353    -0.00300
C355        C  0.47685200  0.21122191  0.84076191    -0.08800
C356        C  0.45998576  0.25023528  0.84167587    -0.06200
C357        C  0.47504852  0.29033732  0.84379340    -0.00300
C358        C  0.00730996  0.28748281  0.84056593    -0.08700
C359        C  0.02504102  0.32971472  0.83624207     0.61600
H360        H  0.04970604  0.25048639  0.84264925     0.12300
H361        H  0.43486871  0.24918699  0.84348343     0.12300
C362        C  0.45882534  0.16900815  0.83857588     0.61900
F363        F  0.04512923  0.32655596  0.80851230    -0.23300
F364        F  0.04212960  0.33759821  0.86532233    -0.20600
F365        F  0.00566487  0.36450041  0.83014160    -0.20300
F366        F  0.45014941  0.15526304  0.87108922    -0.20400
F367        F  0.47641055  0.13721275  0.82292053    -0.20700
F368        F  0.43231787  0.17469243  0.81934149    -0.23400
C369        C  0.45136134  0.51041193  0.77351699    -0.06200
C370        C  0.42870504  0.47749107  0.77875341    -0.00300
C371        C  0.40535934  0.47275212  0.75351298    -0.08800
C372        C  0.40480888  0.50224710  0.72547056    -0.06200
C373        C  0.42704414  0.53544340  0.72113358    -0.00300
C374        C  0.45124460  0.53869771  0.74500910    -0.08700
C375        C  0.47722765  0.57161813  0.73987115     0.61600
H376        H  0.46976931  0.51385827  0.79194475     0.12300
H377        H  0.38777381  0.49822594  0.70554587     0.12300
C378        C  0.87285847  0.45260492  0.76376560     0.61900
F379        F  0.49716928  0.57246519  0.76742224    -0.23300
F380        F  0.46477105  0.61258552  0.73588169    -0.20600
F381        F  0.49443057  0.56148279  0.71094990    -0.20300
F382        F  0.86134678  0.46248417  0.79581560    -0.20400
F383        F  0.87918009  0.40875071  0.76205600    -0.20700
F384        F  0.85000969  0.46185706  0.74015564    -0.23400
C385        C  0.05362011  0.01703821  0.71651461    -0.06200
C386        C  0.06845620  0.97597875  0.71467848    -0.00300
C387        C  0.08860825  0.96430437  0.74169268    -0.08800
C388        C  0.09108917  0.99231799  0.77011709    -0.06200
C389        C  0.07451164  0.03174109  0.77269680    -0.00300
C390        C  0.05632998  0.04497531  0.74483013    -0.08700
C391        C  0.03914279  0.08778231  0.74546545     0.61600
H392        H  0.03951647  0.02762543  0.69535204     0.12300
H393        H  0.10537351  0.98278080  0.79153606     0.12300
C394        C  0.10696127  0.92237301  0.74122898     0.61900
F395        F  0.52080269  0.09904685  0.71513410    -0.23300
F396        F  0.55879500  0.12590525  0.74755014    -0.20600
F397        F  0.01821392  0.08806663  0.77254398    -0.20300
F398        F  0.12778136  0.92293264  0.71404642    -0.20400
F399        F  0.08693434  0.88749639  0.73812697    -0.20700
F400        F  0.12378280  0.91648589  0.77091354    -0.23400
C401        C  0.00730476  0.71225598  0.64849697    -0.06200
C402        C  0.47337536  0.71855215  0.64325821    -0.00300
C403        C  0.46000509  0.76018006  0.64104173    -0.08800
C404        C  0.47972526  0.79683297  0.64091372    -0.06200
C405        C  0.01442891  0.79018172  0.64262970    -0.00300
C406        C  0.02721348  0.74877447  0.64881074    -0.08700
C407        C  0.06181014  0.74316689  0.65368667     0.61600
H408        H  0.01689975  0.67999581  0.65028282     0.12300
H409        H  0.47009480  0.82868155  0.63650225     0.12300
C410        C  0.42537040  0.76543964  0.63591852     0.61900
F411        F  0.06955589  0.70024776  0.65956790    -0.23300
F412        F  0.07113460  0.76710142  0.68159365    -0.20600
F413        F  0.07777532  0.75744700  0.62481193    -0.20300
F414        F  0.40936931  0.74400937  0.66188930    -0.20400
F415        F  0.41700071  0.74808114  0.60476934    -0.20700
F416        F  0.41662350  0.80858073  0.63631293    -0.23400
C417        C  0.30370819  0.53566999  0.89778500    -0.06200
C418        C  0.28119967  0.52208073  0.87424359    -0.00300
C419        C  0.28922979  0.48990728  0.84974806    -0.08800
C420        C  0.31854622  0.47021217  0.85194885    -0.06200
C421        C  0.34038748  0.48316616  0.87616949    -0.00300
C422        C  0.33325868  0.51705580  0.89906858    -0.08700
C423        C  0.35603493  0.53204368  0.92602960     0.61600
H424        H  0.29777677  0.56043419  0.91616321     0.12300
H425        H  0.32474314  0.44440169  0.83459134     0.12300
C426        C  0.26767204  0.47642125  0.82107426     0.61900
F427        F  0.34293685  0.56182673  0.94818394    -0.23300
F428        F  0.38141483  0.55164900  0.91039798    -0.20600
F429        F  0.36566166  0.49690032  0.94532177    -0.20300
F430        F  0.25645075  0.51280571  0.80441789    -0.20400
F431        F  0.24322451  0.45217259  0.83425450    -0.20700
F432        F  0.28281748  0.45140538  0.79684870    -0.23400
C433        C  0.08503845  0.47735988  0.90975502    -0.06200
C434        C  0.09185250  0.50550844  0.88217883    -0.00300
C435        C  0.07066440  0.50830037  0.85437980    -0.08800
C436        C  0.04246903  0.48576857  0.85695993    -0.06200
C437        C  0.03521819  0.45961045  0.88521240    -0.00300
C438        C  0.05697399  0.45406535  0.91174732    -0.08700
C439        C  0.05003452  0.42559991  0.94278986     0.61600
H440        H  0.10156963  0.47461999  0.93033885     0.12300
H441        H  0.02525969  0.48908537  0.83706830     0.12300
C442        C  0.07743283  0.53361299  0.82153878     0.61900
F443        F  0.07472022  0.42424729  0.96518243    -0.23300
F444        F  0.04397586  0.38363766  0.93254674    -0.20600
F445        F  0.02458814  0.44158816  0.96030043    -0.20300
F446        F  0.10561935  0.52077321  0.80800543    -0.20400
F447        F  0.07787869  0.57760769  0.82802723    -0.20700
F448        F  0.05524019  0.52636205  0.79679032    -0.23400
C449        C  0.43607027  0.04177313  0.89710640    -0.06200
C450        C  0.45817300  0.02911135  0.87229682    -0.00300
C451        C  0.44959058  0.99819096  0.84732273    -0.08800
C452        C  0.41995776  0.97938693  0.84976284    -0.06200
C453        C  0.39842562  0.99072705  0.87546417    -0.00300
C454        C  0.40626950  0.02359234  0.89912017    -0.08700
C455        C  0.38384585  0.03959790  0.92663054     0.61600
H456        H  0.44244076  0.06598271  0.91575704     0.12300
H457        H  0.41338068  0.95511085  0.83120747     0.12300
C458        C  0.47106620  0.98461253  0.81816606     0.61900
F459        F  0.39748125  0.06939388  0.94812244    -0.23300
F460        F  0.37355008  0.00516525  0.94668488    -0.20600
F461        F  0.35889778  0.05992935  0.91144700    -0.20300
F462        F  0.49569764  0.96111027  0.83094773    -0.20400
F463        F  0.48198061  0.02091794  0.80079982    -0.20700
F464        F  0.45605487  0.95877254  0.79462492    -0.23400
C465        C  0.19013080  0.97235551  0.90300612    -0.06200
C466        C  0.20891481  0.97862454  0.87361012    -0.00300
C467        C  0.19752699  0.00396804  0.84609166    -0.08800
C468        C  0.16767779  0.02153167  0.84904244    -0.06200
C469        C  0.14920086  0.01550005  0.87856324    -0.00300
C470        C  0.16048501  0.99030034  0.90604988    -0.08700
C471        C  0.14147214  0.98160601  0.93825335     0.61600
H472        H  0.19899505  0.95351602  0.92422184     0.12300
H473        H  0.15855704  0.04073272  0.82813759     0.12300
C474        C  0.21677409  0.01420717  0.81436122     0.61900
F475        F  0.15859408  0.96134389  0.96345489    -0.23300
F476        F  0.11713377  0.95450709  0.93022524    -0.20600
F477        F  0.13031067  0.02005877  0.95153444    -0.20300
F478        F  0.22849457  0.97644160  0.80048007    -0.20400
F479        F  0.24071057  0.04164515  0.82333021    -0.20700
F480        F  0.19962925  0.03480195  0.78926832    -0.23400
C481        C  0.23009388  0.78942247  0.84619164    -0.06200
C482        C  0.26279662  0.78834148  0.84847238    -0.00300
C483        C  0.27763144  0.74739373  0.84706084    -0.08800
C484        C  0.25913189  0.70940625  0.84647865    -0.06200
C485        C  0.22638116  0.71040648  0.84852309    -0.00300
C486        C  0.21157326  0.75135867  0.84662708    -0.08700
C487        C  0.17647153  0.75530161  0.84735288     0.61600
H488        H  0.21889927  0.82078996  0.84649097     0.12300
H489        H  0.27034546  0.67805690  0.84703813     0.12300
C490        C  0.31269669  0.74328884  0.84873578     0.61900
F491        F  0.16694838  0.79803360  0.84493510    -0.23300
F492        F  0.16472457  0.73826911  0.87770716    -0.20600
F493        F  0.16410546  0.73309047  0.82001840    -0.20300
F494        F  0.32330634  0.76082482  0.87896800    -0.20400
F495        F  0.32620512  0.76488400  0.82119717    -0.20700
F496        F  0.32220473  0.70048806  0.84760969    -0.23400
C497        C  0.34198219  0.47854652  0.60136832    -0.06200
C498        C  0.34469841  0.51470462  0.62255763    -0.00300
C499        C  0.31922251  0.52721834  0.64327200    -0.08800
C500        C  0.29115681  0.50425701  0.64060533    -0.06200
C501        C  0.28742182  0.46964602  0.61767095    -0.00300
C502        C  0.31380159  0.45567924  0.59816148    -0.08700
C503        C  0.31284477  0.41785630  0.57334417     0.61600
H504        H  0.36211447  0.46932188  0.58630265     0.12300
H505        H  0.27143546  0.51448326  0.65585042     0.12300
C506        C  0.32168339  0.56418143  0.66859384     0.61900
F507        F  0.34194371  0.40811338  0.56018961    -0.23300
F508        F  0.29402278  0.42788875  0.54604967    -0.20600
F509        F  0.30178510  0.38107896  0.58980071    -0.20300
F510        F  0.32561747  0.60304248  0.65122853    -0.20400
F511        F  0.34663908  0.55736337  0.68988452    -0.20700
F512        F  0.29533572  0.56755138  0.68897174    -0.23400
C513        C  0.04652180  0.51220567  0.64022012    -0.06200
C514        C  0.04026586  0.54334956  0.61510133    -0.00300
C515        C  0.06376762  0.55447422  0.59084231    -0.08800
C516        C  0.09180735  0.53078846  0.59090743    -0.06200
C517        C  0.09701909  0.49673353  0.61436506    -0.00300
C518        C  0.07443728  0.48901377  0.64083953    -0.08700
C519        C  0.07902885  0.45691751  0.67014884     0.61600
H520        H  0.02846281  0.50494449  0.65892698     0.12300
H521        H  0.10946380  0.53771781  0.57170389     0.12300
C522        C  0.05888641  0.58963707  0.56408718     0.61900
F523        F  0.05609245  0.46024332  0.69509653    -0.23300
F524        F  0.10694073  0.46498527  0.68585176    -0.20600
F525        F  0.07835559  0.41494134  0.65801870    -0.20300
F526        F  0.05248626  0.62854605  0.58001880    -0.20400
F527        F  0.03444444  0.57839692  0.54324955    -0.20700
F528        F  0.08493493  0.59578650  0.54354688    -0.23400
C529        C  0.16241354  0.51593747  0.71656953    -0.06200
C530        C  0.17100713  0.47145897  0.71569568    -0.00300
C531        C  0.17956264  0.45135335  0.74666767    -0.08800
C532        C  0.18049979  0.47667546  0.77669872    -0.06200
C533        C  0.17251050  0.52145270  0.77750985    -0.00300
C534        C  0.16293030  0.54117664  0.74664357    -0.08700
C535        C  0.15285537  0.58827412  0.74524028     0.61600
H536        H  0.15518097  0.53131580  0.69298172     0.12300
H537        H  0.18765571  0.46102048  0.80017087     0.12300
C538        C  0.18811216  0.40372125  0.74803813     0.61900
F539        F  0.14363470  0.60063385  0.71275360    -0.23300
F540        F  0.17727433  0.61480794  0.75445884    -0.20600
F541        F  0.12805241  0.59458341  0.76737841    -0.20300
F542        F  0.21339261  0.39625209  0.72681825    -0.20400
F543        F  0.16322272  0.37891218  0.73748188    -0.20700
F544        F  0.19570870  0.39034663  0.78080275    -0.23400
C545        C  0.43809889  0.96889764  0.57760307    -0.06200
C546        C  0.45448115  0.96827877  0.60841865    -0.00300
C547        C  0.44179822  0.98754435  0.63800699    -0.08800
C548        C  0.41321728  0.00867084  0.63546148    -0.06200
C549        C  0.39709382  0.01053740  0.60443858    -0.00300
C550        C  0.40919392  0.98955498  0.57509301    -0.08700
C551        C  0.39191269  0.98877596  0.54143042     0.61600
H552        H  0.44852421  0.95389382  0.55529441     0.12300
H553        H  0.40322027  0.02407118  0.65782735     0.12300
C554        C  0.45860854  0.98613745  0.67191772     0.61900
F555        F  0.41092956  0.97573212  0.51465969    -0.23300
F556        F  0.38063194  0.02951853  0.53344757    -0.20600
F557        F  0.36740149  0.95994229  0.54415132    -0.20300
F558        F  0.48454439  0.01247560  0.67001460    -0.20400
F559        F  0.46757648  0.94407658  0.67926424    -0.20700
F560        F  0.44001238  0.00039357  0.69864120    -0.23400
C561        C  0.17135153  0.96843803  0.64235583    -0.06200
C562        C  0.14860999  0.98662822  0.62130963    -0.00300
C563        C  0.15494815  0.02528074  0.60292213    -0.08800
C564        C  0.18473642  0.04316624  0.60486313    -0.06200
C565        C  0.20860245  0.02332975  0.62371456    -0.00300
C566        C  0.20136923  0.98633146  0.64435912    -0.08700
C567        C  0.22479507  0.96488881  0.66783917     0.61600
H568        H  0.16543363  0.93945300  0.65685480     0.12300
H569        H  0.18989816  0.07208148  0.59004119     0.12300
C570        C  0.13120828  0.04602492  0.57940491     0.61900
F571        F  0.21131269  0.93273287  0.68804165    -0.23300
F572        F  0.23732854  0.99535725  0.68958647    -0.20600
F573        F  0.24812782  0.94599606  0.64858077    -0.20300
F574        F  0.10593402  0.06025471  0.59818608    -0.20400
F575        F  0.12163445  0.01606642  0.55550260    -0.20700
F576        F  0.14323920  0.08153619  0.56187781    -0.23400
C577        C  0.34297722  0.99230324  0.71673363    -0.06200
C578        C  0.32427275  0.02975190  0.71342284    -0.00300
C579        C  0.30259292  0.03919529  0.73941963    -0.08800
C580        C  0.29975634  0.01014416  0.76730431    -0.06200
C581        C  0.31814988  0.97233402  0.77059252    -0.00300
C582        C  0.34034592  0.96349984  0.74487268    -0.08700
C583        C  0.36154677  0.92458419  0.74752871     0.61600
H584        H  0.35928111  0.98508998  0.69627447     0.12300
H585        H  0.28364280  0.01760763  0.78768399     0.12300
C586        C  0.28257021  0.07954792  0.73751451     0.61900
F587        F  0.38108124  0.92125117  0.71930902    -0.23300
F588        F  0.34392171  0.88709203  0.74976328    -0.20600
F589        F  0.37966688  0.92808121  0.77639635    -0.20300
F590        F  0.26440489  0.07854368  0.70853226    -0.20400
F591        F  0.30142849  0.11593065  0.73623249    -0.20700
F592        F  0.26307527  0.08318812  0.76567883    -0.23400
C593        C  0.20852223  0.24649120  0.63781775    -0.06200
C594        C  0.22471367  0.28517435  0.64344673    -0.00300
C595        C  0.25652197  0.28247864  0.65262759    -0.08800
C596        C  0.27237883  0.24274424  0.64884846    -0.06200
C597        C  0.25700822  0.20496611  0.63841716    -0.00300
C598        C  0.22385204  0.20612810  0.63649871    -0.08700
C599        C  0.20419136  0.16580396  0.63118382     0.61600
H600        H  0.18405383  0.24821158  0.63180963     0.12300
H601        H  0.29724065  0.24185897  0.65273384     0.12300
C602        C  0.27468962  0.32035825  0.66676209     0.61900
F603        F  0.17421123  0.17183879  0.64331473    -0.23300
F604        F  0.21640461  0.13081875  0.64879733    -0.20600
F605        F  0.20277612  0.15656450  0.59664236    -0.20300
F606        F  0.25663183  0.35676542  0.67182710    -0.20400
F607        F  0.29885151  0.33070371  0.64466159    -0.20700
F608        F  0.28690418  0.30849895  0.69806881    -0.23400
C609        C  0.48335350  0.49029222  0.46907701    -0.06200
C610        C  0.01083270  0.47293294  0.48056166    -0.00300
C611        C  0.01717615  0.46568502  0.51536781    -0.08800
C612        C  0.99346660  0.47382155  0.53908246    -0.06200
C613        C  0.46796080  0.49699103  0.52771120    -0.00300
C614        C  0.46102306  0.50258426  0.49300499    -0.08700
C615        C  0.43080375  0.52323486  0.48181988     0.61600
H616        H  0.47855048  0.49398072  0.44210942     0.12300
H617        H  0.99812589  0.47067566  0.56620025     0.12300
C618        C  0.04970405  0.45518235  0.52746784     0.61900
F619        F  0.42772748  0.52305858  0.44659751    -0.23300
F620        F  0.42958368  0.56580425  0.49257599    -0.20600
F621        F  0.40608080  0.50055002  0.49612304    -0.20300
F622        F  0.06996512  0.48716897  0.51604726    -0.20400
F623        F  0.05940430  0.41593433  0.51482277    -0.20700
F624        F  0.05123143  0.45303245  0.56280535    -0.23400
C625        C  0.10507874  0.33452664  0.52761282    -0.06200
C626        C  0.13770287  0.33856529  0.52716043    -0.00300
C627        C  0.15284242  0.33205889  0.49474192    -0.08800
C628        C  0.13527376  0.33427380  0.46431093    -0.06200
C629        C  0.10276113  0.33585789  0.46464733    -0.00300
C630        C  0.08766285  0.32929438  0.49705494    -0.08700
C631        C  0.05427297  0.31339517  0.49982503     0.61600
H632        H  0.09313450  0.33507935  0.55213319     0.12300
H633        H  0.14713110  0.33512358  0.43973232     0.12300
C634        C  0.18708749  0.32145653  0.49138013     0.61900
F635        F  0.03362359  0.34589623  0.49190712    -0.23300
F636        F  0.04997818  0.27908103  0.47771426    -0.20600
F637        F  0.04728957  0.29868521  0.53260365    -0.20300
F638        F  0.19469880  0.28893839  0.51436508    -0.20400
F639        F  0.20474190  0.35776889  0.49738087    -0.20700
F640        F  0.19461388  0.30682245  0.45890064    -0.23400
C641        C  0.48363963  0.28708097  0.34166831    -0.06200
C642        C  0.01728399  0.28721069  0.34660097    -0.00300
C643        C  0.03260391  0.24659780  0.34736103    -0.08800
C644        C  0.01469191  0.20826950  0.34494568    -0.06200
C645        C  0.48039783  0.20821726  0.34421011    -0.00300
C646        C  0.46545077  0.24885715  0.34067141    -0.08700
C647        C  0.43041290  0.25234586  0.33834241     0.61600
H648        H  0.47231465  0.31829605  0.34069410     0.12300
H649        H  0.02616649  0.17719527  0.34689308     0.12300
C650        C  0.06721562  0.24317979  0.35384672     0.61900
F651        F  0.42092026  0.29472831  0.33330662    -0.23300
F652        F  0.41674196  0.23722736  0.36835985    -0.20600
F653        F  0.42002714  0.22816160  0.31103528    -0.20300
F654        F  0.07396420  0.26032232  0.38556394    -0.20400
F655        F  0.08354469  0.26556815  0.32865150    -0.20700
F656        F  0.07731938  0.20062140  0.35361714    -0.23400
C657        C  0.00764497  0.99662597  0.46554487    -0.06200
C658        C  0.48346595  0.02695726  0.47625252    -0.00300
C659        C  0.48711576  0.04936288  0.50756577    -0.08800
C660        C  0.51319414  0.04026155  0.52736682    -0.06200
C661        C  0.03502372  0.00563054  0.51826171    -0.00300
C662        C  0.03273982  0.98601333  0.48607222    -0.08700
C663        C  0.05504074  0.95135102  0.47398009     0.61600
H664        H  0.00546976  0.98028455  0.44122167     0.12300
H665        H  0.51537437  0.05446335  0.55255234     0.12300
C666        C  0.46398201  0.08234072  0.52066316     0.61900
F667        F  0.06792388  0.96387108  0.44294360    -0.23300
F668        F  0.03910122  0.91279111  0.46982022    -0.20600
F669        F  0.07905415  0.94466827  0.49666458    -0.20300
F670        F  0.43393607  0.06920314  0.51424620    -0.20400
F671        F  0.46980559  0.12160446  0.50462369    -0.20700
F672        F  0.46642800  0.08803846  0.55567506    -0.23400
C673        C  0.33736441  0.15758679  0.49100350    -0.06200
C674        C  0.35352341  0.15689509  0.52236068    -0.00300
C675        C  0.38614390  0.16402824  0.52084177    -0.08800
C676        C  0.40142288  0.16509999  0.48843327    -0.06200
C677        C  0.38555899  0.15985123  0.45724154    -0.00300
C678        C  0.35255885  0.15987600  0.45868995    -0.08700
C679        C  0.33301210  0.16281855  0.42658003     0.61600
H680        H  0.31236185  0.15424780  0.49165405     0.12300
H681        H  0.42637488  0.16810991  0.48744796     0.12300
C682        C  0.40506398  0.17028582  0.55300258     0.61900
F683        F  0.30245599  0.17296184  0.43423154    -0.23300
F684        F  0.33309797  0.12373570  0.40951839    -0.20600
F685        F  0.34462699  0.19514659  0.40522636    -0.20300
F686        F  0.40743393  0.13145282  0.57067232    -0.20400
F687        F  0.39099375  0.20087950  0.57366692    -0.20700
F688        F  0.43480021  0.18488264  0.54550609    -0.23400
C689        C  0.15010616  0.65917431  0.99405279    -0.06200
C690        C  0.13335662  0.65556093  0.96322571    -0.00300
C691        C  0.10044864  0.65835595  0.96577012    -0.08800
C692        C  0.08596670  0.65982891  0.99867239    -0.06200
C693        C  0.10269594  0.65799261  0.02963033    -0.00300
C694        C  0.13565525  0.66012100  0.02695058    -0.08700
C695        C  0.15591546  0.66323335  0.05844801     0.61600
H696        H  0.17510226  0.65929392  0.99242507     0.12300
H697        H  0.06096697  0.66023052  0.00031320     0.12300
C698        C  0.08032480  0.65947322  0.93410789     0.61900
F699        F  0.18631726  0.67370081  0.04997349    -0.23300
F700        F  0.15607139  0.62394580  0.07573205    -0.20600
F701        F  0.14478256  0.69529669  0.07985240    -0.20300
F702        F  0.07997925  0.61910083  0.91894665    -0.20400
F703        F  0.09177056  0.69000639  0.91107197    -0.20700
F704        F  0.05000328  0.67063737  0.94190791    -0.23400
C705        C  0.46988457  0.53090375  0.97167363    -0.06200
C706        C  0.45440019  0.49250297  0.98066593    -0.00300
C707        C  0.46187030  0.47049536  0.01112386    -0.08800
C708        C  0.98715687  0.48781246  0.02889317    -0.06200
C709        C  0.00642869  0.52214254  0.01750809    -0.00300
C710        C  0.49658664  0.54401630  0.98899605    -0.08700
C711        C  0.51541876  0.58167935  0.97455767     0.61600
H712        H  0.46351380  0.54718877  0.94809602     0.12300
H713        H  0.99131789  0.47193903  0.05326271     0.12300
C714        C  0.94372276  0.43456665  0.02255197     0.61900
F715        F  0.50722988  0.59155769  0.94120552    -0.23300
F716        F  0.05020691  0.57132408  0.97486366    -0.20600
F717        F  0.51027248  0.61802445  0.99423786    -0.20300
F718        F  0.96146414  0.39758644  0.01916644    -0.20400
F719        F  0.41784547  0.42320203  0.00549551    -0.20700
F720        F  0.93617662  0.43977726  0.05672103    -0.23400
C721        C  0.06423372  0.52208109  0.27875441    -0.06200
C722        C  0.06940871  0.47657538  0.27982739    -0.00300
C723        C  0.07324712  0.45479524  0.24836615    -0.08800
C724        C  0.07223160  0.47922452  0.21762979    -0.06200
C725        C  0.06711872  0.52475576  0.21655741    -0.00300
C726        C  0.06298499  0.54645008  0.24800752    -0.08700
C727        C  0.05688341  0.59486655  0.24948328     0.61600
H728        H  0.06093194  0.53912338  0.30259013     0.12300
H729        H  0.07559722  0.46221059  0.19378921     0.12300
C730        C  0.07851403  0.40616060  0.24686250     0.61900
F731        F  0.05254678  0.60911943  0.28272108    -0.23300
F732        F  0.51576410  0.58567270  0.22230457    -0.20600
F733        F  0.08191518  0.61730469  0.23561431    -0.20300
F734        F  0.05342307  0.38455147  0.26145555    -0.20400
F735        F  0.10526180  0.39561077  0.26429737    -0.20700
F736        F  0.08185820  0.39163728  0.21357851    -0.23400
C737        C  0.43430048  0.97532647  0.27612660    -0.06200
C738        C  0.42200354  0.01788571  0.27770288    -0.00300
C739        C  0.40606448  0.03402873  0.24889782    -0.08800
C740        C  0.40369989  0.00754397  0.21970777    -0.06200
C741        C  0.41710192  0.96569082  0.21764231    -0.00300
C742        C  0.43226878  0.94904632  0.24670864    -0.08700
C743        C  0.94416170  0.90267293  0.24539728     0.61600
H744        H  0.44559328  0.96239767  0.29853435     0.12300
H745        H  0.39175727  0.02010699  0.19750724     0.12300
C746        C  0.39131891  0.07865361  0.24883976     0.61900
F747        F  0.95747045  0.89153911  0.27634476    -0.23300
F748        F  0.96650132  0.89830962  0.22000746    -0.20600
F749        F  0.92007092  0.87401710  0.23951257    -0.20300
F750        F  0.41417477  0.10999286  0.25159243    -0.20400
F751        F  0.37067085  0.08206540  0.27603165    -0.20700
F752        F  0.37515157  0.08674804  0.21901687    -0.23400
C753        C  0.46154460  0.74838718  0.14869908    -0.06200
C754        C  0.47768726  0.78758143  0.14340301    -0.00300
C755        C  0.00946273  0.78856175  0.14678288    -0.08800
C756        C  0.02534780  0.74864351  0.14795423    -0.06200
C757        C  0.00932133  0.70908911  0.14830288    -0.00300
C758        C  0.47731611  0.70847305  0.15181299    -0.08700
C759        C  0.45836770  0.66798277  0.15957068     0.61600
H760        H  0.43639527  0.74854616  0.14894887     0.12300
H761        H  0.05043143  0.74829387  0.14579003     0.12300
C762        C  0.02830933  0.83010943  0.14803340     0.61900
F763        F  0.43519932  0.67722151  0.18320767    -0.23300
F764        F  0.47649798  0.63546945  0.17344389    -0.20600
F765        F  0.44485438  0.65320811  0.12988503    -0.20300
F766        F  0.01293977  0.86034363  0.16780364    -0.20400
F767        F  0.03304937  0.84645728  0.11533305    -0.20700
F768        F  0.05701725  0.82304252  0.16263246    -0.23400
C769        C  0.98499350  0.95278022  0.99390717    -0.06200
C770        C  0.46485806  0.98194295  0.01163002    -0.00300
C771        C  0.46693671  0.02714328  0.00639237    -0.08800
C772        C  0.49243520  0.04361127  0.98822601    -0.06200
C773        C  0.01628098  0.01348979  0.97467461    -0.00300
C774        C  0.01194736  0.96813351  0.97795618    -0.08700
C775        C  0.03554588  0.93460102  0.96676575     0.61600
H776        H  0.98228242  0.91801524  0.99719682     0.12300
H777        H  0.49417172  0.07835082  0.98423888     0.12300
C778        C  0.44252960  0.05842493  0.01939775     0.61900
F779        F  0.04068439  0.90566425  0.99337145    -0.23300
F780        F  0.06377788  0.95286821  0.95811608    -0.20600
F781        F  0.02429571  0.91208155  0.93901663    -0.20300
F782        F  0.45128806  0.07447049  0.05081541    -0.20400
F783        F  0.41386592  0.03828412  0.02258586    -0.20700
F784        F  0.43935127  0.09285686  0.99677478    -0.23400
C785        C  0.40115342  0.84443076  0.99740223    -0.06200
C786        C  0.38322696  0.84339816  0.02801781    -0.00300
C787        C  0.35043793  0.84051290  0.02460131    -0.08800
C788        C  0.33716720  0.84236051  0.99145586    -0.06200
C789        C  0.35499067  0.84678273  0.96092876    -0.00300
C790        C  0.38786696  0.84603205  0.96419440    -0.08700
C791        C  0.40922144  0.84751281  0.93303173     0.61600
H792        H  0.42613702  0.84611774  0.99957342     0.12300
H793        H  0.31214885  0.84222824  0.98946418     0.12300
C794        C  0.32911882  0.83553714  0.05559693     0.61900
F795        F  0.43981934  0.83983546  0.94160263    -0.23300
F796        F  0.40783256  0.88794484  0.91758846    -0.20600
F797        F  0.40044371  0.81599717  0.90999080    -0.20300
F798        F  0.32841480  0.87372961  0.07388922    -0.20400
F799        F  0.33955001  0.80216315  0.07630743    -0.20700
F800        F  0.29898213  0.82570971  0.04632163    -0.23400
C801        C  0.33527002  0.32816157  0.99685499    -0.06200
C802        C  0.35093976  0.33114283  0.02853454    -0.00300
C803        C  0.38365513  0.32633307  0.02780445    -0.08800
C804        C  0.39930281  0.32662129  0.99569972    -0.06200
C805        C  0.38374079  0.33175032  0.96410993    -0.00300
C806        C  0.35096126  0.32848899  0.96475162    -0.08700
C807        C  0.33238743  0.32688086  0.93204386     0.61600
H808        H  0.31016868  0.32846980  0.99722073     0.12300
H809        H  0.42441061  0.32593147  0.99529826     0.12300
C810        C  0.40233487  0.32215701  0.06035904     0.61900
F811        F  0.30130859  0.31827620  0.93846069    -0.23300
F812        F  0.34373859  0.29435875  0.91123944    -0.20600
F813        F  0.33447587  0.36616029  0.91501502    -0.20300
F814        F  0.39048050  0.28856002  0.08023789    -0.20400
F815        F  0.40108398  0.36031341  0.07853530    -0.20700
F816        F  0.43325462  0.31324826  0.05356210    -0.23400
C817        C  0.25176402  0.48643538  0.96439289    -0.06200
C818        C  0.23110974  0.51868212  0.97582678    -0.00300
C819        C  0.23699750  0.54036501  0.00697430    -0.08800
C820        C  0.26338827  0.52882430  0.02545706    -0.06200
C821        C  0.28172682  0.49368962  0.01555039    -0.00300
C822        C  0.27722691  0.47395270  0.98368621    -0.08700
C823        C  0.29667194  0.43614572  0.97157405     0.61600
H824        H  0.24815510  0.47058403  0.94006578     0.12300
H825        H  0.26737683  0.54323504  0.05027577     0.12300
C826        C  0.21503543  0.57371933  0.02189303     0.61900
F827        F  0.30389366  0.44120753  0.93723180    -0.23300
F828        F  0.27991269  0.39818454  0.97597953    -0.20600
F829        F  0.32419677  0.43303082  0.98939448    -0.20300
F830        F  0.18453143  0.56066109  0.01785814    -0.20400
F831        F  0.21999713  0.61302064  0.00556450    -0.20700
F832        F  0.21975686  0.57937291  0.05660247    -0.23400
C833        C  0.43522243  0.52637756  0.08998855    -0.06200
C834        C  0.45606448  0.51892290  0.11694010    -0.00300
C835        C  0.44673790  0.49157999  0.14476199    -0.08800
C836        C  0.41729715  0.47169507  0.14372808    -0.06200
C837        C  0.39709391  0.47877685  0.11643347    -0.00300
C838        C  0.40584627  0.50676939  0.08924670    -0.08700
C839        C  0.38457209  0.51491265  0.05911326     0.61600
H840        H  0.44234404  0.54705560  0.06878197     0.12300
H841        H  0.40967286  0.45038750  0.16436645     0.12300
C842        C  0.46716369  0.48357526  0.17566134     0.61900
F843        F  0.39936693  0.53781058  0.03300857    -0.23300
F844        F  0.35923043  0.53872182  0.06985797    -0.20600
F845        F  0.37452766  0.47588719  0.04585224    -0.20300
F846        F  0.47779396  0.52264261  0.18825170    -0.20400
F847        F  0.49208017  0.45785214  0.16652582    -0.20700
F848        F  0.45115038  0.46259246  0.20190401    -0.23400
C849        C  0.15245783  0.48306554  0.08436407    -0.06200
C850        C  0.14611551  0.51224987  0.11101260    -0.00300
C851        C  0.16828438  0.51733354  0.13762040    -0.08800
C852        C  0.19643816  0.49490794  0.13510504    -0.06200
C853        C  0.20264557  0.46598622  0.10857026    -0.00300
C854        C  0.18033857  0.45953634  0.08273617    -0.08700
C855        C  0.18634892  0.42946462  0.05283684     0.61600
H856        H  0.13541566  0.47906724  0.06446009     0.12300
H857        H  0.21431142  0.50033099  0.15379283     0.12300
C858        C  0.16265678  0.54504386  0.16920920     0.61900
F859        F  0.16213491  0.42960640  0.02981813    -0.23300
F860        F  0.18994563  0.38750665  0.06470189    -0.20600
F861        F  0.21289388  0.44235828  0.03541365    -0.20300
F862        F  0.13520514  0.53262852  0.18510836    -0.20400
F863        F  0.16142884  0.58839622  0.16006280    -0.20700
F864        F  0.18600438  0.54046592  0.19307847    -0.23400
C865        C  0.28496948  0.99507109  0.13500130    -0.06200
C866        C  0.27905109  0.02395012  0.10789632    -0.00300
C867        C  0.30335609  0.03336470  0.08376365    -0.08800
C868        C  0.33168843  0.01145569  0.08697025    -0.06200
C869        C  0.33710291  0.98137532  0.11328795    -0.00300
C870        C  0.31355388  0.97384403  0.13850529    -0.08700
C871        C  0.31817067  0.94440083  0.16949554     0.61600
H872        H  0.26667497  0.98873621  0.15357654     0.12300
H873        H  0.34999109  0.01730700  0.06830403     0.12300
C874        C  0.30002593  0.06531768  0.05408404     0.61900
F875        F  0.29338486  0.94613168  0.19229835    -0.23300
F876        F  0.34440213  0.95702686  0.18696831    -0.20600
F877        F  0.32110624  0.90183436  0.15911894    -0.20300
F878        F  0.29284084  0.10601130  0.06625634    -0.20400
F879        F  0.27704477  0.05130066  0.03244866    -0.20700
F880        F  0.32706713  0.06946334  0.03483079    -0.23400
C881        C  0.07003409  0.01010859  0.14071535    -0.06200
C882        C  0.08711451  0.01407260  0.11002623    -0.00300
C883        C  0.07410816  0.99944381  0.07910444    -0.08800
C884        C  0.04437618  0.98059922  0.08006816    -0.06200
C885        C  0.02717492  0.97638299  0.11074160    -0.00300
C886        C  0.04015026  0.99146985  0.14175438    -0.08700
C887        C  0.02307282  0.98747895  0.17588040     0.61600
H888        H  0.08045725  0.02173359  0.16405959     0.12300
H889        H  0.03412492  0.96938557  0.05650471     0.12300
C890        C  0.09129655  0.00410097  0.04515503     0.61900
F891        F  0.04193806  0.99803853  0.20310195    -0.23300
F892        F  0.01291941  0.94537084  0.18084487    -0.20600
F893        F  0.99789908  0.01511697  0.17641174    -0.20300
F894        F  0.11553219  0.97503763  0.04411952    -0.20400
F895        F  0.10272814  0.04580890  0.04105487    -0.20700
F896        F  0.07223295  0.99568404  0.01782133    -0.23400
C897        C  0.21195160  0.24535052  0.14737891    -0.06200
C898        C  0.22740178  0.20556131  0.14487445    -0.00300
C899        C  0.26003978  0.20489613  0.15044753    -0.08800
C900        C  0.27665846  0.24442431  0.15080355    -0.06200
C901        C  0.26133848  0.28429077  0.14878957    -0.00300
C902        C  0.22842763  0.28460431  0.15062720    -0.08700
C903        C  0.20996477  0.32606519  0.15354981     0.61600
H904        H  0.18694730  0.24623895  0.14469193     0.12300
H905        H  0.30181407  0.24403237  0.15022677     0.12300
C906        C  0.27820312  0.16324218  0.15402712     0.61900
F907        F  0.18605678  0.32036907  0.17710237    -0.23300
F908        F  0.19745612  0.33623458  0.12209934    -0.20600
F909        F  0.22805340  0.36032463  0.16451660    -0.20300
F910        F  0.25964517  0.12984967  0.16628372    -0.20400
F911        F  0.30223053  0.16864330  0.17689291    -0.20700
F912        F  0.29056326  0.15203340  0.12262473    -0.23400
C913        C  0.08607116  0.15993142  0.99246430    -0.06200
C914        C  0.10387273  0.15869234  0.96180269    -0.00300
C915        C  0.13664808  0.16227785  0.96475560    -0.08800
C916        C  0.15011832  0.16196238  0.99779149    -0.06200
C917        C  0.13233501  0.15868738  0.02840690    -0.00300
C918        C  0.09951963  0.16021575  0.02546762    -0.08700
C919        C  0.07839794  0.16163230  0.05680492     0.61600
H920        H  0.06105688  0.15831642  0.99066316     0.12300
H921        H  0.17515542  0.16184625  0.99965848     0.12300
C922        C  0.15773245  0.16548187  0.93345018     0.61900
F923        F  0.04820484  0.17195165  0.04824187    -0.23300
F924        F  0.08883122  0.19291299  0.07919729    -0.20600
F925        F  0.07791918  0.12164752  0.07303218    -0.20300
F926        F  0.14642490  0.19619041  0.91081706    -0.20400
F927        F  0.15938082  0.12564427  0.91754310    -0.20700
F928        F  0.18756684  0.17787497  0.94200884    -0.23400
C929        C  0.22290280  0.04409170  0.98339467    -0.06200
C930        C  0.20956994  0.01527872  0.00720560    -0.00300
C931        C  0.21930242  0.97143998  0.00787979    -0.08800
C932        C  0.24588330  0.96024106  0.98958534    -0.06200
C933        C  0.26110291  0.98991230  0.96782527    -0.00300
C934        C  0.24918848  0.03285109  0.96423894    -0.08700
C935        C  0.26432905  0.06784374  0.94179972     0.61600
H936        H  0.21427371  0.07698180  0.98207926     0.12300
H937        H  0.25403697  0.92710947  0.99138520     0.12300
C938        C  0.20329069  0.93598044  0.02872705     0.61900
F939        F  0.25384607  0.10890832  0.95000013    -0.23300
F940        F  0.25742531  0.06079792  0.90777392    -0.20600
F941        F  0.29614919  0.06782925  0.94622512    -0.20300
F942        F  0.17243868  0.94557710  0.03463597    -0.20400
F943        F  0.21827646  0.93070399  0.05962517    -0.20700
F944        F  0.20420190  0.89706907  0.01129131    -0.23400
C945        C  0.33838520  0.66099476  0.49465678    -0.06200
C946        C  0.35454075  0.66085079  0.46282024    -0.00300
C947        C  0.38713243  0.66753352  0.46381175    -0.08800
C948        C  0.40239001  0.66645682  0.49591748    -0.06200
C949        C  0.38646493  0.65981095  0.52746143    -0.00300
C950        C  0.35354926  0.66054922  0.52675696    -0.08700
C951        C  0.33417083  0.65793772  0.55931907     0.61600
H952        H  0.31333579  0.65850818  0.49437583     0.12300
H953        H  0.42747991  0.66821038  0.49634304     0.12300
C954        C  0.40615149  0.67362465  0.43135810     0.61900
F955        F  0.30288539  0.66347628  0.55301652    -0.23300
F956        F  0.34314889  0.69011188  0.58165634    -0.20600
F957        F  0.33794070  0.61778134  0.57447756    -0.20300
F958        F  0.39353445  0.70640004  0.41159157    -0.20400
F959        F  0.40630556  0.63541655  0.41325848    -0.20700
F960        F  0.43660163  0.68488056  0.43817385    -0.23400
C961        C  0.28085951  0.52805800  0.50194000    -0.06200
C962        C  0.28701362  0.50213529  0.47353232    -0.00300
C963        C  0.27246244  0.46145294  0.47061932    -0.08800
C964        C  0.24767619  0.45198069  0.49270294    -0.06200
C965        C  0.23771504  0.48130790  0.51791536    -0.00300
C966        C  0.25476557  0.52054801  0.52267009    -0.08700
C967        C  0.24499324  0.55620018  0.54733461     0.61600
H968        H  0.29358324  0.55833614  0.50394340     0.12300
H969        H  0.23550635  0.42165354  0.48964286     0.12300
C970        C  0.28086272  0.42981041  0.44251872     0.61900
F971        F  0.26153167  0.59419868  0.54177950    -0.23300
F972        F  0.25013549  0.54341874  0.58073707    -0.20600
F973        F  0.21395000  0.56586529  0.54293224    -0.20300
F974        F  0.31272493  0.42846425  0.43800028    -0.20400
F975        F  0.26709426  0.44228453  0.41225813    -0.20700
F976        F  0.27083276  0.38824454  0.45063791    -0.23400
C977        C  0.40251896  0.47462483  0.38047870    -0.06200
C978        C  0.40137286  0.51721806  0.36754551    -0.00300
C979        C  0.42918443  0.53705652  0.35520526    -0.08800
C980        C  0.45726949  0.51498704  0.35957781    -0.06200
C981        C  0.45870512  0.47299316  0.37366934    -0.00300
C982        C  0.43057865  0.45184177  0.38362392    -0.08700
C983        C  0.42961132  0.40590227  0.39801685     0.61600
H984        H  0.38111588  0.45967785  0.38943478     0.12300
H985        H  0.47860129  0.53130536  0.35197022     0.12300
C986        C  0.43115433  0.58088990  0.33712942     0.61900
F987        F  0.39959332  0.38985497  0.40031353    -0.23300
F988        F  0.44194348  0.40517870  0.43057255    -0.20600
F989        F  0.44626384  0.37853681  0.37691270    -0.20300
F990        F  0.44076162  0.61189226  0.36006202    -0.20400
F991        F  0.40351150  0.59365067  0.32290923    -0.20700
F992        F  0.45265493  0.57919412  0.31057041    -0.23400
C993        C  0.15599211  0.51550031  0.35902866    -0.06200
C994        C  0.14722528  0.49259557  0.38881063    -0.00300
C995        C  0.16707668  0.49184064  0.41727679    -0.08800
C996        C  0.19623206  0.51242406  0.41436638    -0.06200
C997        C  0.20554755  0.53386461  0.38402907    -0.00300
C998        C  0.18498039  0.53645510  0.35620657    -0.08700
C999        C  0.19441675  0.55920273  0.32320936     0.61600
H1000       H  0.14021628  0.51576765  0.33759499     0.12300
H1001       H  0.21240365  0.51084501  0.43541285     0.12300
C1002       C  0.15792853  0.46744987  0.44966384     0.61900
F1003       F  0.17069032  0.55936631  0.29957804    -0.23300
F1004       F  0.21958274  0.53818756  0.30897005    -0.20600
F1005       F  0.20248492  0.60171217  0.32978199    -0.20300
F1006       F  0.15464564  0.42393538  0.44239214    -0.20400
F1007       F  0.13012009  0.48311371  0.46239154    -0.20700
F1008       F  0.17994196  0.47174635  0.47484356    -0.23400
C1009       C  0.28620182  0.50762793  0.26228131    -0.06200
C1010       C  0.31387197  0.52937285  0.27108120    -0.00300
C1011       C  0.34093295  0.52071487  0.25107192    -0.08800
C1012       C  0.33898539  0.49133001  0.22333426    -0.06200
C1013       C  0.31139467  0.46906435  0.21565962    -0.00300
C1014       C  0.28464387  0.47700055  0.23582480    -0.08700
C1015       C  0.25484496  0.45152007  0.23052335     0.61600
H1016       H  0.26560665  0.51352508  0.27743667     0.12300
H1017       H  0.35902432  0.48587586  0.20697137     0.12300
C1018       C  0.37201980  0.54043759  0.25966471     0.61900
F1019       F  0.23277649  0.46022054  0.25554868    -0.23300
F1020       F  0.26119597  0.40762175  0.23166499    -0.20600
F1021       F  0.24219148  0.46169363  0.19921832    -0.20300
F1022       F  0.38076662  0.52581128  0.29158525    -0.20400
F1023       F  0.36992202  0.58515938  0.25950880    -0.20700
F1024       F  0.39497549  0.52887628  0.23642479    -0.23400
C1025       C  0.29916905  0.98034262  0.41580216    -0.06200
C1026       C  0.28534577  0.97045020  0.38431848    -0.00300
C1027       C  0.30152769  0.97901689  0.35329940    -0.08800
C1028       C  0.33069530  0.99909362  0.35480782    -0.06200
C1029       C  0.34406758  0.01022700  0.38614653    -0.00300
C1030       C  0.32851349  0.00033231  0.41725152    -0.08700
C1031       C  0.34243225  0.01189634  0.45156746     0.61600
H1032       H  0.28643374  0.97330885  0.43920595     0.12300
H1033       H  0.34326413  0.00666392  0.33135975     0.12300
C1034       C  0.28815860  0.96737651  0.31874358     0.61900
F1035       F  0.32174284  0.00460184  0.47828793    -0.23300
F1036       F  0.35072066  0.05523916  0.45188481    -0.20600
F1037       F  0.36845458  0.98691863  0.45723910    -0.20300
F1038       F  0.26447998  0.99565216  0.31097822    -0.20400
F1039       F  0.27676870  0.92536137  0.31944734    -0.20700
F1040       F  0.31026499  0.97019229  0.29282439    -0.23400
C1041       C  0.07011179  0.96161759  0.36502470    -0.06200
C1042       C  0.09543277  0.98808657  0.37327312    -0.00300
C1043       C  0.09057913  0.03306585  0.37852930    -0.08800
C1044       C  0.05990851  0.04855451  0.37902264    -0.06200
C1045       C  0.03440155  0.02131694  0.37261109    -0.00300
C1046       C  0.03974861  0.97724877  0.36391944    -0.08700
C1047       C  0.01405233  0.94595800  0.35390576     0.61600
H1048       H  0.07425861  0.92776612  0.35972496     0.12300
H1049       H  0.05559192  0.08236154  0.38455599     0.12300
C1050       C  0.11723495  0.06507011  0.38214660     0.61900
F1051       F  0.02518950  0.90493535  0.34666751    -0.23300
F1052       F  0.99967011  0.96115858  0.32473270    -0.20600
F1053       F  0.99271165  0.94161980  0.38037505    -0.20300
F1054       F  0.13787319  0.06051303  0.35504621    -0.20400
F1055       F  0.13239247  0.05786934  0.41260061    -0.20700
F1056       F  0.10704485  0.10760658  0.38204961    -0.23400
C1057       C  0.19723795  0.00966843  0.26716657    -0.06200
C1058       C  0.17774746  0.97332274  0.27282539    -0.00300
C1059       C  0.15400572  0.96472317  0.24902141    -0.08800
C1060       C  0.15080253  0.99272502  0.22054617    -0.06200
C1061       C  0.17067107  0.02855111  0.21473586    -0.00300
C1062       C  0.19463679  0.03673168  0.23811947    -0.08700
C1063       C  0.21836579  0.07220266  0.23127887     0.61600
H1064       H  0.21465881  0.01692272  0.28597810     0.12300
H1065       H  0.13311208  0.98611281  0.20174937     0.12300
C1066       C  0.13170838  0.92694210  0.25392264     0.61900
F1067       F  0.24020066  0.07460938  0.25695382    -0.23300
F1068       F  0.20368396  0.11189088  0.22896803    -0.20600
F1069       F  0.23375961  0.06381616  0.20082405    -0.20300
F1070       F  0.11558644  0.93135203  0.28447486    -0.20400
F1071       F  0.14808737  0.88847938  0.25432963    -0.20700
F1072       F  0.11026403  0.92469161  0.22782664    -0.23400
C1073       C  0.26313278  0.79139292  0.33766812    -0.06200
C1074       C  0.23061049  0.78879405  0.34235607    -0.00300
C1075       C  0.21627709  0.74730791  0.34190580    -0.08800
C1076       C  0.23530476  0.71021442  0.34238603    -0.06200
C1077       C  0.26785595  0.71314092  0.34239733    -0.00300
C1078       C  0.28203476  0.75404247  0.33733671    -0.08700
C1079       C  0.31698209  0.75816924  0.33372542     0.61600
H1080       H  0.27390644  0.82317457  0.33675491     0.12300
H1081       H  0.22487777  0.67844987  0.34564152     0.12300
C1082       C  0.18128395  0.74177110  0.34349765     0.61900
F1083       F  0.32614076  0.80066452  0.32780722    -0.23300
F1084       F  0.32707807  0.73352458  0.30636825    -0.20600
F1085       F  0.33110428  0.74361268  0.36328112    -0.20300
F1086       F  0.16795823  0.76421062  0.31664042    -0.20400
F1087       F  0.16987476  0.75728105  0.37426347    -0.20700
F1088       F  0.17251132  0.69869716  0.34084760    -0.23400
C1089       C  0.15208523  0.84206732  0.48712512    -0.06200
C1090       C  0.13477904  0.84077878  0.45651158    -0.00300
C1091       C  0.10200292  0.83739780  0.45975170    -0.08800
C1092       C  0.08808363  0.83807670  0.49282404    -0.06200
C1093       C  0.10511926  0.84448940  0.52322487    -0.00300
C1094       C  0.13801609  0.84517421  0.52015126    -0.08700
C1095       C  0.15835402  0.85242166  0.55100283     0.61600
H1096       H  0.17709366  0.84398141  0.48492615     0.12300
H1097       H  0.06303227  0.83665888  0.49489021     0.12300
C1098       C  0.08131200  0.83505869  0.42859423     0.61900
F1099       F  0.18963644  0.85084304  0.54267034    -0.23300
F1100       F  0.15240541  0.82081353  0.57551350    -0.20600
F1101       F  0.15234667  0.89282646  0.56440880    -0.20300
F1102       F  0.09260250  0.80468790  0.40580581    -0.20400
F1103       F  0.08033096  0.87524377  0.41277141    -0.20700
F1104       F  0.05121251  0.82322667  0.43732429    -0.23400
C1105       C  0.23012106  0.94164560  0.50069419    -0.06200
C1106       C  0.21024447  0.97018320  0.48357106    -0.00300
C1107       C  0.21212536  0.01494546  0.48943976    -0.08800
C1108       C  0.23791610  0.03082874  0.50627549    -0.06200
C1109       C  0.25975459  0.00267576  0.52077237    -0.00300
C1110       C  0.25522613  0.95710861  0.51929892    -0.08700
C1111       C  0.27688372  0.92466868  0.53621361     0.61600
H1112       H  0.22755447  0.90707344  0.49691946     0.12300
H1113       H  0.23993955  0.06557604  0.50966964     0.12300
C1114       C  0.18762629  0.04651354  0.47765670     0.61900
F1115       F  0.27277155  0.88319771  0.52365683    -0.23300
F1116       F  0.27114441  0.92317180  0.57111308    -0.20600
F1117       F  0.30744098  0.93636492  0.53013313    -0.20300
F1118       F  0.16081472  0.02522895  0.46803913    -0.20400
F1119       F  0.19898990  0.07081109  0.45036622    -0.20700
F1120       F  0.17999759  0.07408929  0.50416134    -0.23400
O1121       O  0.67993395  0.97810904  0.33221350    -0.82200
C1122       C  0.65192949  0.84812429  0.42361414     0.97100
O1123       O  0.63893318  0.86532312  0.39791741    -0.71300
O1124       O  0.62804072  0.93151169  0.35711222    -0.74900
Al1125     Al  0.65890061  0.88762630  0.35618167     1.49000
C1126       C  0.62427119  0.96561970  0.37429058     0.92400
O1127       O  0.69828154  0.98103027  0.42580108    -0.81100
O1128       O  0.74589261  0.92520377  0.40526345    -0.74700
Al1129     Al  0.68868054  0.97348021  0.37918221     1.90100
O1130       O  0.69430692  0.91575003  0.44744424    -0.73800
O1131       O  0.72852298  0.85379861  0.37410255    -0.73600
O1132       O  0.68086163  0.84201985  0.42176876    -0.79300
O1133       O  0.68495076  0.83616832  0.34931073    -0.77500
O1134       O  0.68639596  0.91600228  0.38096990    -1.13600
O1135       O  0.67476404  0.91163700  0.31286846    -0.72800
C1136       C  0.67743820  0.95244121  0.30745997     0.97900
C1137       C  0.69792619  0.95567323  0.45122405     0.94300
Al1138     Al  0.71051139  0.88661111  0.40961790     1.55600
O1139       O  0.64638603  0.98100303  0.39120391    -0.77400
C1140       C  0.71350007  0.82878193  0.35496404     0.98500
C1141       C  0.75231926  0.95599895  0.38473949     0.93300
O1142       O  0.73127832  0.97293503  0.36694250    -0.82800
O1143       O  0.79548409  0.53434103  0.32842596    -0.82200
C1144       C  0.83451604  0.64656089  0.43279864     0.97100
O1145       O  0.84463315  0.64999983  0.40193321    -0.71300
O1146       O  0.86819693  0.57999466  0.37513833    -0.74900
Al1147     Al  0.83489080  0.61539782  0.36022749     1.49000
C1148       C  0.87104896  0.54046641  0.36867181     0.92400
O1149       O  0.81249818  0.51397264  0.42069931    -0.81100
O1150       O  0.74349036  0.58645924  0.38386375    -0.74700
Al1151     Al  0.80411806  0.52644762  0.37423342     1.90100
O1152       O  0.77690408  0.55959400  0.43911196    -0.73800
O1153       O  0.77360461  0.66001329  0.38534215    -0.73600
O1154       O  0.80853455  0.62907163  0.43814724    -0.79300
O1155       O  0.80586553  0.65710455  0.34193935    -0.77500
O1156       O  0.80577683  0.58346205  0.38100798    -1.13600
O1157       O  0.83146560  0.58288247  0.31574293    -0.72800
C1158       C  0.81356999  0.55157933  0.30675200     0.97900
C1159       C  0.79402083  0.52691846  0.44363674     0.94300
Al1160     Al  0.77808401  0.60720890  0.40913540     1.55600
O1161       O  0.84715984  0.51770268  0.36418707    -0.77400
C1162       C  0.78309109  0.67455280  0.35701422     0.98500
C1163       C  0.73806438  0.54638890  0.38181580     0.93300
O1164       O  0.76012936  0.51963522  0.38187964    -0.82800
O1165       O  0.67182222  0.02191642  0.15432823    -0.82200
C1166       C  0.64877610  0.15227240  0.06199304     0.97100
O1167       O  0.63557451  0.13703459  0.08866795    -0.71300
O1168       O  0.62207535  0.07076801  0.12898390    -0.74900
Al1169     Al  0.65477562  0.11323680  0.12989625     1.49000
C1170       C  0.61794582  0.03731247  0.11102909     0.92400
O1171       O  0.69352632  0.01564510  0.06206353    -0.81100
O1172       O  0.74037553  0.07172803  0.08056212    -0.74700
Al1173     Al  0.68235882  0.02581927  0.10775990     1.90100
O1174       O  0.69013853  0.07880079  0.03737477    -0.73800
O1175       O  0.72485323  0.14469500  0.10821545    -0.73600
O1176       O  0.67794094  0.15518321  0.06182787    -0.79300
O1177       O  0.68283673  0.16274649  0.13670434    -0.77500
O1178       O  0.68135138  0.08326907  0.10462932    -1.13600
O1179       O  0.66996547  0.08876989  0.17304414    -0.72800
C1180       C  0.67107430  0.04802128  0.17879105     0.97900
C1181       C  0.69385729  0.03847680  0.03538203     0.94300
Al1182     Al  0.70621949  0.11041029  0.07459778     1.55600
O1183       O  0.64027710  0.01997177  0.09515200    -0.77400
C1184       C  0.71159556  0.16818228  0.13004097     0.98500
C1185       C  0.74637053  0.04228551  0.10206930     0.93300
O1186       O  0.72478328  0.02624170  0.12048838    -0.82800
O1187       O  0.79262505  0.46468585  0.16236276    -0.82200
C1188       C  0.83344889  0.34809704  0.06032246     0.97100
O1189       O  0.84288332  0.34647621  0.09121187    -0.71300
O1190       O  0.86500832  0.41919755  0.11666676    -0.74900
Al1191     Al  0.83198518  0.38258947  0.13158649     1.49000
C1192       C  0.86643314  0.45982796  0.11854848     0.92400
O1193       O  0.80621038  0.48267859  0.06898226    -0.81100
O1194       O  0.74029906  0.40593420  0.10518549    -0.74700
Al1195     Al  0.79959057  0.47028964  0.11564932     1.90100
O1196       O  0.77427114  0.43258913  0.05065240    -0.73800
O1197       O  0.77241375  0.33434786  0.10646637    -0.73600
O1198       O  0.80796270  0.36566100  0.05397777    -0.79300
O1199       O  0.80300500  0.34020164  0.15052529    -0.77500
O1200       O  0.80267699  0.41292270  0.10990039    -1.13600
O1201       O  0.82797849  0.41577991  0.17473107    -0.72800
C1202       C  0.81049521  0.44726746  0.18352151     0.97900
C1203       C  0.78830339  0.46804739  0.04668943     0.94300
Al1204     Al  0.77632290  0.38654964  0.08164796     1.55600
O1205       O  0.84229725  0.48196203  0.12212705    -0.77400
C1206       C  0.78110729  0.32124042  0.13526407     0.98500
C1207       C  0.73427184  0.44550494  0.10914202     0.93300
O1208       O  0.75579380  0.47316753  0.11061184    -0.82800
O1209       O  0.47416514  0.97210839  0.12772168    -0.82200
C1210       C  0.89877237  0.85005942  0.06095274     0.97100
O1211       O  0.92790098  0.84626542  0.06183456    -0.71300
O1212       O  0.94174617  0.92309574  0.04051401    -0.74900
Al1213     Al  0.95637179  0.88971212  0.07738597     1.49000
C1214       C  0.94711038  0.96300489  0.03917407     0.92400
O1215       O  0.89008317  0.97848390  0.09650981    -0.81100
O1216       O  0.91730490  0.90614843  0.17478519    -0.74700
Al1217     Al  0.93166438  0.97257692  0.11090696     1.90100
O1218       O  0.87097531  0.92660615  0.12916530    -0.73800
O1219       O  0.93030033  0.83309190  0.13657764    -0.73600
O1220       O  0.88500076  0.86318104  0.08776457    -0.79300
O1221       O  0.97335115  0.85325392  0.11086956    -0.77500
O1222       O  0.93072447  0.91522518  0.10680886    -1.13600
O1223       O  0.49168225  0.92869727  0.08767296    -0.72800
C1224       C  0.49638089  0.95772461  0.10988870     0.97900
C1225       C  0.86729683  0.96109947  0.11207167     0.94300
Al1226     Al  0.90315055  0.88392335  0.13030108     1.55600
O1227       O  0.94503396  0.98543958  0.06577605    -0.77400
C1228       C  0.95911512  0.82745766  0.13052957     0.98500
C1229       C  0.91830702  0.94677177  0.18116428     0.93300
O1230       O  0.91949835  0.97364237  0.15687340    -0.82800
O1231       O  0.01022241  0.52355072  0.12810102    -0.82200
C1232       C  0.58517272  0.64599705  0.06204416     0.97100
O1233       O  0.55582796  0.64829667  0.06247190    -0.71300
O1234       O  0.53797751  0.57329441  0.04263060    -0.74900
Al1235     Al  0.52632392  0.60637024  0.08042232     1.49000
C1236       C  0.53012154  0.53436240  0.04192332     0.92400
O1237       O  0.59323845  0.51577914  0.09489244    -0.81100
O1238       O  0.56648670  0.58481445  0.17543497    -0.74700
Al1239     Al  0.55176596  0.52128242  0.11113220     1.90100
O1240       O  0.61218392  0.56564074  0.12841682    -0.73800
O1241       O  0.55466090  0.66025207  0.13890690    -0.73600
O1242       O  0.59862973  0.63158449  0.08851073    -0.79300
O1243       O  0.51101188  0.64302904  0.11455702    -0.77500
O1244       O  0.55259893  0.57904053  0.10794639    -1.13600
O1245       O  0.99138401  0.57234572  0.09285891    -0.72800
C1246       C  0.98732166  0.54099217  0.11363778     0.97900
C1247       C  0.61576413  0.53140060  0.11136859     0.94300
Al1248     Al  0.58063892  0.60888466  0.13100360     1.55600
O1249       O  0.53691056  0.51005459  0.06664629    -0.77400
C1250       C  0.52608407  0.66757255  0.13368637     0.98500
C1251       C  0.56595725  0.54393230  0.18138762     0.93300
O1252       O  0.56473758  0.51794680  0.15680208    -0.82800
O1253       O  0.47790805  0.02181995  0.36375353    -0.82200
C1254       C  0.90536984  0.14783452  0.42467298     0.97100
O1255       O  0.93471058  0.14986020  0.42555011    -0.71300
O1256       O  0.95175762  0.07608497  0.44830212    -0.74900
Al1257     Al  0.96439578  0.10764418  0.40971181     1.49000
C1258       C  0.96120434  0.03815851  0.45085173     0.92400
O1259       O  0.89806854  0.01711605  0.39995020    -0.81100
O1260       O  0.92584454  0.08111770  0.31525464    -0.74700
Al1261     Al  0.93922833  0.02157133  0.38213584     1.90100
O1262       O  0.87916528  0.06379539  0.36262321    -0.73800
O1263       O  0.93733119  0.15885824  0.34860351    -0.73600
O1264       O  0.89261394  0.13225850  0.39843165    -0.79300
O1265       O  0.98019300  0.14307101  0.37492744    -0.77500
O1266       O  0.93848267  0.07923525  0.38285253    -1.13600
O1267       O  0.49749656  0.06962503  0.39917676    -0.72800
C1268       C  0.50102080  0.03851248  0.37828454     0.97900
C1269       C  0.87541051  0.03210560  0.38320734     0.94300
Al1270     Al  0.91101377  0.10745369  0.35796486     1.55600
O1271       O  0.95583540  0.01226178  0.42688068    -0.77400
C1272       C  0.96542566  0.16776171  0.35548959     0.98500
C1273       C  0.92514590  0.04003837  0.31103310     0.93300
O1274       O  0.92486747  0.01531115  0.33682734    -0.82800
O1275       O  0.01411859  0.47387509  0.36496939    -0.82200
C1276       C  0.58628545  0.34812594  0.43201812     0.97100
O1277       O  0.55708102  0.34583600  0.43061535    -0.71300
O1278       O  0.53935095  0.42070297  0.45109734    -0.74900
Al1279     Al  0.52846963  0.38804549  0.41289467     1.49000
C1280       C  0.53272652  0.46002431  0.45227368     0.92400
O1281       O  0.59414872  0.48082764  0.40115547    -0.81100
O1282       O  0.57116402  0.41132794  0.31937799    -0.74700
Al1283     Al  0.55380745  0.47376142  0.38289826     1.90100
O1284       O  0.61579353  0.43226962  0.36748777    -0.73800
O1285       O  0.55946819  0.33576343  0.35527165    -0.73600
O1286       O  0.60108372  0.36429945  0.40655803    -0.79300
O1287       O  0.51449033  0.35177121  0.37791208    -0.77500
O1288       O  0.55548964  0.41619601  0.38622360    -1.13600
O1289       O  0.99405690  0.42583291  0.40061017    -0.72800
C1290       C  0.99065185  0.45635162  0.37910343     0.97900
C1291       C  0.61776585  0.46562534  0.38609703     0.94300
Al1292     Al  0.58462778  0.38756461  0.36378351     1.55600
O1293       O  0.53671395  0.48412366  0.42662916    -0.77400
C1294       C  0.53090513  0.32704414  0.35997006     0.98500
C1295       C  0.56957219  0.45207073  0.31334533     0.93300
O1296       O  0.56942119  0.47806528  0.33793954    -0.82800
O1297       O  0.76537360  0.02187005  0.62818597    -0.82200
C1298       C  0.83616541  0.14500564  0.55368583     0.97100
O1299       O  0.80708196  0.14121560  0.55164311    -0.71300
O1300       O  0.79082804  0.06347038  0.53708462    -0.74900
Al1301     Al  0.77886852  0.10106822  0.57265672     1.49000
C1302       C  0.78359547  0.02425383  0.53972855     0.92400
O1303       O  0.84565215  0.01633806  0.58863128    -0.81100
O1304       O  0.81985176  0.08726322  0.66880305    -0.74700
Al1305     Al  0.80576472  0.02081818  0.60824784     1.90100
O1306       O  0.86571520  0.06857534  0.61999574    -0.73800
O1307       O  0.80417911  0.16010115  0.63190063    -0.73600
O1308       O  0.84929695  0.13476528  0.58145519    -0.79300
O1309       O  0.76316357  0.14184707  0.60316927    -0.77500
O1310       O  0.80553536  0.07820597  0.60188169    -1.13600
O1311       O  0.74554497  0.06427147  0.58840513    -0.72800
C1312       C  0.74206002  0.03636759  0.61231502     0.97900
C1313       C  0.86874223  0.03398589  0.60263340     0.94300
Al1314     Al  0.83258720  0.11079809  0.62386722     1.55600
O1315       O  0.78836523  0.00447062  0.56703135    -0.77400
C1316       C  0.77596992  0.16663565  0.62395503     0.98500
C1317       C  0.82169397  0.04683046  0.67554590     0.93300
O1318       O  0.82253480  0.02001778  0.65182075    -0.82800
O1319       O  0.73200889  0.47265291  0.62866601    -0.82200
C1320       C  0.65542310  0.35329827  0.55928310     0.97100
O1321       O  0.68467893  0.35266142  0.55954346    -0.71300
O1322       O  0.70452713  0.42867321  0.54167796    -0.74900
Al1323     Al  0.71432936  0.39223218  0.57859356     1.49000
C1324       C  0.71346803  0.46733478  0.54235290     0.92400
O1325       O  0.64957375  0.48721319  0.59588711    -0.81100
O1326       O  0.67122852  0.41092469  0.67396713    -0.74700
Al1327     Al  0.69083436  0.47672560  0.61165574     1.90100
O1328       O  0.62800748  0.43493650  0.62605908    -0.73800
O1329       O  0.68301545  0.33673047  0.63587272    -0.73600
O1330       O  0.64115168  0.36835894  0.58527722    -0.79300
O1331       O  0.72772090  0.35242820  0.61176624    -0.77500
O1332       O  0.68794476  0.41926438  0.60658243    -1.13600
O1333       O  0.74970686  0.42642979  0.59115309    -0.71200
C1334       C  0.75469093  0.45537786  0.61310856     0.97900
C1335       C  0.62604915  0.47151591  0.61144022     0.94300
Al1336     Al  0.65833134  0.38960350  0.62849181     1.55600
O1337       O  0.70703097  0.48979350  0.56790601    -0.77400
C1338       C  0.71141620  0.32777918  0.63027902     0.98500
C1339       C  0.67332896  0.45140163  0.68070505     0.93300
O1340       O  0.67706077  0.47813474  0.65673915    -0.82800
O1341       O  0.76104790  0.97709017  0.85508185    -0.82200
C1342       C  0.83619483  0.85913276  0.92737561     0.97100
O1343       O  0.80694082  0.85936764  0.92864680    -0.71300
O1344       O  0.78956656  0.93730366  0.94358005    -0.74900
Al1345     Al  0.77788549  0.89845103  0.90878227     1.49000
C1346       C  0.78145696  0.97625185  0.94096523     0.92400
O1347       O  0.84336923  0.98741162  0.88684299    -0.81100
O1348       O  0.81813780  0.91117835  0.81099578    -0.74700
Al1349     Al  0.80253413  0.97984934  0.87116959     1.90100
O1350       O  0.86364683  0.93444208  0.85703258    -0.73800
O1351       O  0.80543806  0.83967071  0.85170831    -0.73600
O1352       O  0.84962459  0.87084294  0.89970902    -0.79300
O1353       O  0.76251940  0.85678622  0.87843156    -0.77500
O1354       O  0.80380145  0.92264949  0.87841990    -1.13600
O1355       O  0.74377174  0.93303396  0.89540582    -0.72800
C1356       C  0.73883840  0.96198436  0.87303988     0.97900
C1357       C  0.86669410  0.96965209  0.87317567     0.94300
Al1358     Al  0.83185114  0.89094519  0.85653170     1.55600
O1359       O  0.78720876  0.99629349  0.91387908    -0.77400
C1360       C  0.77745642  0.83110522  0.85978983     0.98500
C1361       C  0.81698474  0.95146486  0.80316586     0.93300
O1362       O  0.81638201  0.97935627  0.82617472    -0.82800
O1363       O  0.72620493  0.52107124  0.86519132    -0.82200
C1364       C  0.65197074  0.64537775  0.92970578     0.97100
O1365       O  0.68135625  0.64751599  0.92987056    -0.71300
O1366       O  0.70051538  0.57351230  0.95045476    -0.74900
Al1367     Al  0.71110843  0.60658592  0.91186986     1.49000
C1368       C  0.70631287  0.53393223  0.95174679     0.92400
O1369       O  0.64387649  0.51651081  0.89949113    -0.81100
O1370       O  0.67172566  0.58427334  0.81730846    -0.74700
Al1371     Al  0.68513873  0.52143395  0.88255402     1.90100
O1372       O  0.62534767  0.56525398  0.86418538    -0.73800
O1373       O  0.68227343  0.66072461  0.85305761    -0.73600
O1374       O  0.63874998  0.63123811  0.90310455    -0.79300
O1375       O  0.72577000  0.64389129  0.87741191    -0.77500
O1376       O  0.68466014  0.57911839  0.88493053    -1.13600
O1377       O  0.74553984  0.56992935  0.89958824    -0.72800
C1378       C  0.74936285  0.53873264  0.87891514     0.97900
C1379       C  0.62146786  0.53194688  0.88268633     0.94300
Al1380     Al  0.65685805  0.60862725  0.86116550     1.55600
O1381       O  0.70023858  0.51024032  0.92675551    -0.77400
C1382       C  0.71039878  0.66952213  0.85930807     0.98500
C1383       C  0.67220755  0.54330138  0.81200683     0.93300
O1384       O  0.67161015  0.51765186  0.83715000    -0.82800
O1385       O  0.54258128  0.96790611  0.66119188    -0.82200
C1386       C  0.58581772  0.85898966  0.55518755     0.97100
O1387       O  0.59356153  0.85355697  0.58658267    -0.71300
O1388       O  0.61602751  0.92465159  0.61353716    -0.74900
Al1389     Al  0.58275270  0.88915187  0.62812189     1.49000
C1390       C  0.61826366  0.96487098  0.61789286     0.92400
O1391       O  0.55952527  0.99274782  0.56927390    -0.81100
O1392       O  0.99318454  0.91118069  0.60274183    -0.74700
Al1393     Al  0.55144223  0.97748710  0.61509435     1.90100
O1394       O  0.52671092  0.94519845  0.54846528    -0.73800
O1395       O  0.52508678  0.84243678  0.59923275    -0.73600
O1396       O  0.56114617  0.87875859  0.54871536    -0.79300
O1397       O  0.55203430  0.84849288  0.64614877    -0.77500
O1398       O  0.55442935  0.92098619  0.60683307    -1.13600
O1399       O  0.57980270  0.92237101  0.67217309    -0.72800
C1400       C  0.56265105  0.95415433  0.68151897     0.97900
C1401       C  0.54206783  0.97983314  0.54588677     0.94300
Al1402     Al  0.52875216  0.89676780  0.57710378     1.55600
O1403       O  0.59444778  0.98730988  0.62335550    -0.77400
C1404       C  0.53104620  0.82988425  0.62911287     0.98500
C1405       C  0.98685055  0.95036030  0.60847056     0.93300
O1406       O  0.00798476  0.97840668  0.61040906    -0.82800
O1407       O  0.95045148  0.53985085  0.66837761    -0.82200
C1408       C  0.90483347  0.64362761  0.55939151     0.97100
O1409       O  0.89721130  0.64920514  0.59085358    -0.71300
O1410       O  0.87631971  0.57803308  0.62094261    -0.74900
Al1411     Al  0.90870039  0.61583256  0.63305733     1.49000
C1412       C  0.87499101  0.53789877  0.62643511     0.92400
O1413       O  0.93575287  0.51085832  0.57730119    -0.81100
O1414       O  0.49983988  0.59720732  0.60584773    -0.74700
Al1415     Al  0.94259005  0.52869738  0.62254668     1.90100
O1416       O  0.96687611  0.55976069  0.55419247    -0.73800
O1417       O  0.96471917  0.66483829  0.60089187    -0.73600
O1418       O  0.92975041  0.62442315  0.55245320    -0.79300
O1419       O  0.93813640  0.65836109  0.64873568    -0.77500
O1420       O  0.93794047  0.58467852  0.61225705    -1.13600
O1421       O  0.91257375  0.58569473  0.67802504    -0.72800
C1422       C  0.93117065  0.55643474  0.68854065     0.97900
C1423       C  0.95368812  0.52338678  0.55368852     0.94300
Al1424     Al  0.96289491  0.60934203  0.58085801     1.55600
O1425       O  0.89943748  0.51639497  0.63132041    -0.77400
C1426       C  0.95829732  0.67779766  0.63053634     0.98500
C1427       C  0.50722734  0.55844381  0.61244206     0.93300
O1428       O  0.48648416  0.52954619  0.61554361    -0.82800
O1429       O  0.56825786  0.02899673  0.83070753    -0.82200
C1430       C  0.58576836  0.15257118  0.92930413     0.97100
O1431       O  0.59973383  0.14039399  0.90231223    -0.71300
O1432       O  0.61467539  0.07618856  0.86228105    -0.74900
Al1433     Al  0.58298299  0.11871933  0.85929083     1.49000
C1434       C  0.61742339  0.04071987  0.87848820     0.92400
O1435       O  0.53776999  0.01490194  0.91914320    -0.81100
O1436       O  0.99570980  0.07038946  0.89976794    -0.74700
Al1437     Al  0.55356634  0.02971767  0.87575775     1.90100
O1438       O  0.54085062  0.07502126  0.94732728    -0.73800
O1439       O  0.51303640  0.15004172  0.87872882    -0.73600
O1440       O  0.55654836  0.15293282  0.92947732    -0.79300
O1441       O  0.55583238  0.16873029  0.85173681    -0.77500
O1442       O  0.55486202  0.08696112  0.88153564    -1.13600
O1443       O  0.57093385  0.09668290  0.81377284    -0.72800
C1444       C  0.57078972  0.05619601  0.80690498     0.97900
C1445       C  0.53410017  0.03547651  0.94632175     0.94300
Al1446     Al  0.52852552  0.11135713  0.91096191     1.55600
O1447       O  0.59411380  0.02257858  0.89230033    -0.77400
C1448       C  0.52719516  0.17468733  0.85822399     0.98500
C1449       C  0.99093980  0.04257849  0.87666269     0.93300
O1450       O  0.01349925  0.02775194  0.85947999    -0.82800
O1451       O  0.94701649  0.46499914  0.83388871    -0.82200
C1452       C  0.90241643  0.34680479  0.93392932     0.97100
O1453       O  0.89371826  0.34563193  0.90271701    -0.71300
O1454       O  0.87248231  0.41893910  0.87709719    -0.74900
Al1455     Al  0.90586373  0.38297525  0.86271169     1.49000
C1456       C  0.87118211  0.45962908  0.87528103     0.92400
O1457       O  0.92995697  0.48046043  0.92676397    -0.81100
O1458       O  0.49623985  0.40975243  0.89264110    -0.74700
Al1459     Al  0.93820704  0.46969888  0.88028029     1.90100
O1460       O  0.96184986  0.43073016  0.94585181    -0.73800
O1461       O  0.96449158  0.33357066  0.88934254    -0.73600
O1462       O  0.92791116  0.36394587  0.94098457    -0.79300
O1463       O  0.93540841  0.34172015  0.84421381    -0.77500
O1464       O  0.93468176  0.41241096  0.88559960    -1.13600
O1465       O  0.91122952  0.41786761  0.81973129    -0.72800
C1466       C  0.92919845  0.44963040  0.81175840     0.97900
C1467       C  0.94738008  0.46573365  0.94962642     0.94300
Al1468     Al  0.96021145  0.38525232  0.91443318     1.55600
O1469       O  0.89563904  0.48154133  0.87201806    -0.77400
C1470       C  0.95700001  0.32233706  0.85972861     0.98500
C1471       C  0.50209459  0.44955181  0.88969695     0.93300
O1472       O  0.48064358  0.47710794  0.88916592    -0.82800
C1473       C  0.52481159  0.25289544  0.84226267    -0.06200
C1474       C  0.50970371  0.21262978  0.84466422    -0.00300
C1475       C  0.97697903  0.20637100  0.84149815    -0.08800
C1476       C  0.95978134  0.24514927  0.84303096    -0.06200
C1477       C  0.97448964  0.28561081  0.84447744    -0.00300
C1478       C  0.50790260  0.29185319  0.84079923    -0.08700
C1479       C  0.52597239  0.33394134  0.83760516     0.61600
H1480       H  0.54990136  0.25427148  0.84380627     0.12300
H1481       H  0.93470565  0.24361375  0.84535348     0.12300
C1482       C  0.95912448  0.16401664  0.83925498     0.61900
F1483       F  0.54739872  0.33071360  0.81111998    -0.23300
F1484       F  0.54158334  0.34165458  0.86771920    -0.20600
F1485       F  0.50700158  0.36883834  0.83038836    -0.20300
F1486       F  0.94857046  0.15191634  0.87150867    -0.20400
F1487       F  0.97730900  0.13127352  0.82579565    -0.20700
F1488       F  0.93386798  0.16900375  0.81799285    -0.23400
C1489       C  0.95511618  0.49963114  0.77013744    -0.06200
C1490       C  0.92887772  0.47360920  0.77794125    -0.00300
C1491       C  0.90223089  0.47855276  0.75708928    -0.08800
C1492       C  0.90302921  0.50909322  0.72975213    -0.06200
C1493       C  0.92891499  0.53593581  0.72306196    -0.00300
C1494       C  0.95537056  0.53114128  0.74389928    -0.08700
C1495       C  0.98458877  0.55841259  0.73963897     0.61600
H1496       H  0.97573845  0.49648599  0.78563762     0.12300
H1497       H  0.88379505  0.51081010  0.71228283     0.12300
C1498       C  0.38158395  0.43639327  0.75533446     0.61900
F1499       F  0.99233280  0.57610038  0.77089347    -0.23300
F1500       F  0.98120841  0.59226621  0.71657937    -0.20600
F1501       F  0.00867099  0.53230812  0.72863647    -0.20300
F1502       F  0.36269639  0.44152525  0.78378322    -0.20400
F1503       F  0.39659500  0.39688425  0.75723175    -0.20700
F1504       F  0.36282803  0.43574740  0.72676143    -0.23400
C1505       C  0.55213826  0.02136380  0.71578108    -0.06200
C1506       C  0.56725478  0.98044759  0.71382760    -0.00300
C1507       C  0.58742755  0.96906314  0.74087122    -0.08800
C1508       C  0.58985838  0.99714648  0.76928663    -0.06200
C1509       C  0.57327086  0.03656941  0.77191092    -0.00300
C1510       C  0.55484042  0.04947465  0.74410312    -0.08700
C1511       C  0.53765611  0.09230459  0.74467385     0.61600
H1512       H  0.53797476  0.03179832  0.69463392     0.12300
H1513       H  0.60426399  0.98772919  0.79063643     0.12300
C1514       C  0.60612568  0.92748243  0.74024696     0.61900
F1515       F  0.02290036  0.09507434  0.71559028    -0.23300
F1516       F  0.06017865  0.12135283  0.74922137    -0.20600
F1517       F  0.51727246  0.09319560  0.77223153    -0.20300
F1518       F  0.62707701  0.92882295  0.71317953    -0.20400
F1519       F  0.58644190  0.89229017  0.73674583    -0.20700
F1520       F  0.62279244  0.92152688  0.77001939    -0.23400
C1521       C  0.50552935  0.71480987  0.64844355    -0.06200
C1522       C  0.97526415  0.71643175  0.64263568    -0.00300
C1523       C  0.96212825  0.75813854  0.64023008    -0.08800
C1524       C  0.98197106  0.79450783  0.64055732    -0.06200
C1525       C  0.51225969  0.79285525  0.64259080    -0.00300
C1526       C  0.52528157  0.75147309  0.64824581    -0.08700
C1527       C  0.56003109  0.74598519  0.65183889     0.61600
H1528       H  0.51533194  0.68264852  0.64994535     0.12300
H1529       H  0.97254018  0.82644464  0.63601343     0.12300
C1530       C  0.92765446  0.76381489  0.63425308     0.61900
F1531       F  0.56813408  0.70293242  0.65627053    -0.23300
F1532       F  0.56997833  0.76881979  0.68004507    -0.20600
F1533       F  0.57517979  0.76158971  0.62285117    -0.20300
F1534       F  0.91099218  0.74230517  0.65966757    -0.20400
F1535       F  0.91990054  0.74686164  0.60276589    -0.20700
F1536       F  0.91912525  0.80703843  0.63468497    -0.23400
C1537       C  0.80514006  0.53812175  0.89359946    -0.06200
C1538       C  0.78119069  0.52075475  0.87358120    -0.00300
C1539       C  0.78798483  0.48489268  0.85198254    -0.08800
C1540       C  0.81727448  0.46507958  0.85450349    -0.06200
C1541       C  0.84075331  0.48191196  0.87522547    -0.00300
C1542       C  0.83489656  0.51977357  0.89455196    -0.08700
C1543       C  0.85912473  0.53925827  0.91795717     0.61600
H1544       H  0.80023904  0.56592892  0.90944430     0.12300
H1545       H  0.82220543  0.43618626  0.83987412     0.12300
C1546       C  0.76517855  0.46759971  0.82585160     0.61900
F1547       F  0.84721666  0.57268190  0.93750555    -0.23300
F1548       F  0.88353770  0.55594382  0.89870723    -0.20600
F1549       F  0.86987034  0.50772491  0.94016140    -0.20300
F1550       F  0.75355199  0.50150398  0.80648192    -0.20400
F1551       F  0.74112372  0.44585740  0.84230445    -0.20700
F1552       F  0.77917747  0.43895992  0.80339415    -0.23400
C1553       C  0.58355551  0.48370979  0.91174929    -0.06200
C1554       C  0.59095563  0.50985758  0.88319781    -0.00300
C1555       C  0.56979433  0.51245581  0.85537869    -0.08800
C1556       C  0.54136922  0.49066933  0.85840277    -0.06200
C1557       C  0.53399338  0.46539091  0.88708945    -0.00300
C1558       C  0.55534565  0.46100073  0.91410699    -0.08700
C1559       C  0.54804362  0.43364298  0.94563749     0.61600
H1560       H  0.59996670  0.48155548  0.93249585     0.12300
H1561       H  0.52425412  0.49345771  0.83836366     0.12300
C1562       C  0.57694467  0.53648703  0.82200881     0.61900
F1563       F  0.57173351  0.43498235  0.96929010    -0.23300
F1564       F  0.54371889  0.39093731  0.93626715    -0.20600
F1565       F  0.52145475  0.44870100  0.96141310    -0.20300
F1566       F  0.60473661  0.52194846  0.80852953    -0.20400
F1567       F  0.57847652  0.58065267  0.82761601    -0.20700
F1568       F  0.55442440  0.52955873  0.79758104    -0.23400
C1569       C  0.93628992  0.03988714  0.89645876    -0.06200
C1570       C  0.95876008  0.02560165  0.87258297    -0.00300
C1571       C  0.95010721  0.99419005  0.84797196    -0.08800
C1572       C  0.91979650  0.97731696  0.84940576    -0.06200
C1573       C  0.89776598  0.99061630  0.87399702    -0.00300
C1574       C  0.90599264  0.02311266  0.89774755    -0.08700
C1575       C  0.88349035  0.03974543  0.92491118     0.61600
H1576       H  0.94272954  0.06415864  0.91494157     0.12300
H1577       H  0.91312388  0.95297809  0.83110517     0.12300
C1578       C  0.97221515  0.97791340  0.82028133     0.61900
F1579       F  0.89743061  0.06857226  0.94693497    -0.23300
F1580       F  0.87213176  0.00545826  0.94443697    -0.20600
F1581       F  0.85924312  0.06135698  0.90944257    -0.20300
F1582       F  0.99618727  0.95493643  0.83502961    -0.20400
F1583       F  0.98403202  0.01259735  0.80158327    -0.20700
F1584       F  0.95761605  0.95051366  0.79752568    -0.23400
C1585       C  0.68695651  0.97023067  0.89931930    -0.06200
C1586       C  0.70717685  0.98083518  0.87180979    -0.00300
C1587       C  0.69724714  0.01099994  0.84666936    -0.08800
C1588       C  0.66777814  0.02942801  0.85033146    -0.06200
C1589       C  0.64795580  0.01923629  0.87802604    -0.00300
C1590       C  0.65751391  0.98874570  0.90293519    -0.08700
C1591       C  0.63699306  0.97516838  0.93302257     0.61600
H1592       H  0.69443695  0.94735613  0.91864045     0.12300
H1593       H  0.65986189  0.05220052  0.83112997     0.12300
C1594       C  0.71708003  0.02413084  0.81602389     0.61900
F1595       F  0.65264452  0.94965746  0.95640988    -0.23300
F1596       F  0.61230115  0.95115458  0.92104182    -0.20600
F1597       F  0.62624870  0.01133567  0.95016467    -0.20300
F1598       F  0.72631843  0.98745803  0.79857443    -0.20400
F1599       F  0.74265120  0.04728665  0.82690201    -0.20700
F1600       F  0.70111209  0.05025788  0.79327039    -0.23400
C1601       C  0.72900667  0.79014697  0.84650404    -0.06200
C1602       C  0.76160594  0.78966338  0.84988268    -0.00300
C1603       C  0.77690935  0.74903027  0.84984103    -0.08800
C1604       C  0.75897457  0.71077523  0.84783372    -0.06200
C1605       C  0.72623180  0.71106391  0.84855959    -0.00300
C1606       C  0.71092318  0.75169232  0.84644849    -0.08700
C1607       C  0.67575225  0.75491896  0.84621874     0.61600
H1608       H  0.71752700  0.82131575  0.84623687     0.12300
H1609       H  0.77054548  0.67969501  0.84868235     0.12300
C1610       C  0.81167602  0.74544732  0.85526143     0.61900
F1611       F  0.66582019  0.79749996  0.84420415    -0.23300
F1612       F  0.66341465  0.73697589  0.87596570    -0.20600
F1613       F  0.66428411  0.73315134  0.81818762    -0.20300
F1614       F  0.81945578  0.76442796  0.88601908    -0.20400
F1615       F  0.82746371  0.76594975  0.82870534    -0.20700
F1616       F  0.82143740  0.70274711  0.85642336    -0.23400
C1617       C  0.84218304  0.47892166  0.60506480    -0.06200
C1618       C  0.84470866  0.51531873  0.62595984    -0.00300
C1619       C  0.81859964  0.52932283  0.64511562    -0.08800
C1620       C  0.79035232  0.50693104  0.64154551    -0.06200
C1621       C  0.78695403  0.47200329  0.61879873    -0.00300
C1622       C  0.81375986  0.45722171  0.60045053    -0.08700
C1623       C  0.81299522  0.42008384  0.57503336     0.61600
H1624       H  0.86267656  0.46890260  0.59095725     0.12300
H1625       H  0.77022448  0.51802756  0.65570690     0.12300
C1626       C  0.82033462  0.56759602  0.66934355     0.61900
F1627       F  0.84226695  0.40998488  0.56254606    -0.23300
F1628       F  0.79500246  0.43138831  0.54736603    -0.20600
F1629       F  0.80109396  0.38317797  0.59053960    -0.20300
F1630       F  0.82482574  0.60555033  0.65091598    -0.20400
F1631       F  0.84457762  0.56208340  0.69177149    -0.20700
F1632       F  0.79339013  0.57198215  0.68861939    -0.23400
C1633       C  0.54606844  0.51285777  0.64027502    -0.06200
C1634       C  0.54002769  0.54436542  0.61532698    -0.00300
C1635       C  0.56339025  0.55476268  0.59072174    -0.08800
C1636       C  0.59145133  0.53115299  0.59103443    -0.06200
C1637       C  0.59648991  0.49685099  0.61433824    -0.00300
C1638       C  0.57364310  0.48875238  0.64047318    -0.08700
C1639       C  0.57743497  0.45487511  0.66868759     0.61600
H1640       H  0.52795368  0.50578841  0.65895709     0.12300
H1641       H  0.60913502  0.53800100  0.57184704     0.12300
C1642       C  0.55812192  0.58853459  0.56295053     0.61900
F1643       F  0.55385619  0.45672292  0.69300722    -0.23300
F1644       F  0.60499206  0.46167457  0.68555680    -0.20600
F1645       F  0.57693584  0.41374372  0.65485844    -0.20300
F1646       F  0.55180082  0.62822906  0.57764407    -0.20400
F1647       F  0.53347284  0.57607110  0.54285932    -0.20700
F1648       F  0.58387559  0.59367444  0.54180484    -0.23400
C1649       C  0.66144480  0.51571258  0.71678644    -0.06200
C1650       C  0.67102653  0.47168767  0.71564057    -0.00300
C1651       C  0.68127530  0.45217695  0.74622995    -0.08800
C1652       C  0.68175473  0.47730347  0.77640456    -0.06200
C1653       C  0.67280222  0.52168308  0.77740502    -0.00300
C1654       C  0.66264419  0.54117993  0.74668491    -0.08700
C1655       C  0.65311796  0.58848423  0.74513993     0.61600
H1656       H  0.65325854  0.53070911  0.69343896     0.12300
H1657       H  0.68967978  0.46204780  0.79973814     0.12300
C1658       C  0.69266526  0.40570381  0.74687430     0.61900
F1659       F  0.64406967  0.60091816  0.71261056    -0.23300
F1660       F  0.67791586  0.61442906  0.75419975    -0.20600
F1661       F  0.62844900  0.59555152  0.76729803    -0.20300
F1662       F  0.71756997  0.40145974  0.72453349    -0.20400
F1663       F  0.66903831  0.37806549  0.73718613    -0.20700
F1664       F  0.70224539  0.39308998  0.77916360    -0.23400
C1665       C  0.93931688  0.96730274  0.57750163    -0.06200
C1666       C  0.95476315  0.96566847  0.60889342    -0.00300
C1667       C  0.94176041  0.98566690  0.63803172    -0.08800
C1668       C  0.91387960  0.00839015  0.63447847    -0.06200
C1669       C  0.89860769  0.01096643  0.60294312    -0.00300
C1670       C  0.91105488  0.98942470  0.57400228    -0.08700
C1671       C  0.89480368  0.98963841  0.53970322     0.61600
H1672       H  0.95004603  0.95200551  0.55549605     0.12300
H1673       H  0.90358553  0.02407408  0.65654777     0.12300
C1674       C  0.95721368  0.98257939  0.67268856     0.61900
F1675       F  0.91403419  0.97505258  0.51364557    -0.23300
F1676       F  0.88528715  0.03110463  0.53121578    -0.20600
F1677       F  0.86924736  0.96258625  0.54161306    -0.20300
F1678       F  0.98489424  0.00523490  0.67192331    -0.20400
F1679       F  0.96291835  0.93956316  0.68061216    -0.20700
F1680       F  0.93880654  0.99965404  0.69849630    -0.23400
C1681       C  0.67303658  0.96297473  0.63504313    -0.06200
C1682       C  0.64920226  0.98534121  0.61836081    -0.00300
C1683       C  0.65548969  0.02584590  0.60253688    -0.08800
C1684       C  0.68574432  0.04231946  0.60382285    -0.06200
C1685       C  0.71022144  0.01922388  0.61898875    -0.00300
C1686       C  0.70365968  0.97891696  0.63562980    -0.08700
C1687       C  0.72842052  0.95179845  0.65307169     0.61600
H1688       H  0.66741125  0.93228757  0.64730181     0.12300
H1689       H  0.69068311  0.07314255  0.59155613     0.12300
C1690       C  0.63113632  0.05042220  0.58230977     0.61900
F1691       F  0.71622218  0.91443427  0.66789066    -0.23300
F1692       F  0.74217994  0.97547493  0.67877385    -0.20600
F1693       F  0.75061691  0.93932508  0.62935693    -0.20300
F1694       F  0.60767450  0.06439829  0.60388344    -0.20400
F1695       F  0.61901420  0.02366924  0.55749242    -0.20700
F1696       F  0.64337403  0.08668940  0.56595687    -0.23400
C1697       C  0.84253691  0.99151079  0.71499691    -0.06200
C1698       C  0.82224275  0.02697995  0.71023599    -0.00300
C1699       C  0.79841147  0.03395022  0.73442818    -0.08800
C1700       C  0.79614482  0.00579441  0.76294500    -0.06200
C1701       C  0.81641810  0.97032519  0.76792618    -0.00300
C1702       C  0.84005831  0.96308914  0.74342377    -0.08700
C1703       C  0.86312118  0.92659059  0.74790504     0.61600
H1704       H  0.86019953  0.98575395  0.69564375     0.12300
H1705       H  0.77896410  0.01222452  0.78246207     0.12300
C1706       C  0.77509710  0.07021275  0.72955960     0.61900
F1707       F  0.88364254  0.92405574  0.72048356    -0.23300
F1708       F  0.84746019  0.88748438  0.75063108    -0.20600
F1709       F  0.88007915  0.93322262  0.77725910    -0.20300
F1710       F  0.75899225  0.06410360  0.69950169    -0.20400
F1711       F  0.79040619  0.10966559  0.72800575    -0.20700
F1712       F  0.75378537  0.07182332  0.75617141    -0.23400
C1713       C  0.70936796  0.24762791  0.63581581    -0.06200
C1714       C  0.72577959  0.28605223  0.64175534    -0.00300
C1715       C  0.75763184  0.28282525  0.65073213    -0.08800
C1716       C  0.77314513  0.24274616  0.64689166    -0.06200
C1717       C  0.75751497  0.20514620  0.63633838    -0.00300
C1718       C  0.72438125  0.20702214  0.63407296    -0.08700
C1719       C  0.70441363  0.16710582  0.62822172     0.61600
H1720       H  0.68491621  0.24984087  0.62985144     0.12300
H1721       H  0.79797161  0.24141357  0.65093652     0.12300
C1722       C  0.77618137  0.32032639  0.66500924     0.61900
F1723       F  0.67394203  0.17415065  0.63827047    -0.23300
F1724       F  0.71527965  0.13238249  0.64722080    -0.20600
F1725       F  0.70459827  0.15688288  0.59380770    -0.20300
F1726       F  0.75874999  0.35744771  0.66945992    -0.20400
F1727       F  0.80092107  0.32962943  0.64339874    -0.20700
F1728       F  0.78761854  0.30841982  0.69666078    -0.23400
C1729       C  0.98187746  0.48886505  0.47020157    -0.06200
C1730       C  0.51243616  0.47470876  0.47938821    -0.00300
C1731       C  0.51935730  0.46898369  0.51417761    -0.08800
C1732       C  0.49603956  0.47824368  0.53803276    -0.06200
C1733       C  0.96571102  0.49359379  0.52887619    -0.00300
C1734       C  0.95929399  0.50052312  0.49411476    -0.08700
C1735       C  0.92939149  0.52202290  0.48284200     0.61600
H1736       H  0.97742800  0.49345921  0.44322549     0.12300
H1737       H  0.50105434  0.47621326  0.56511834     0.12300
C1738       C  0.55201093  0.45859632  0.52591463     0.61900
F1739       F  0.92702171  0.52361846  0.44754257    -0.23300
F1740       F  0.92810573  0.56404044  0.49482201    -0.20600
F1741       F  0.90429618  0.49892388  0.49584118    -0.20300
F1742       F  0.57232757  0.48982613  0.51331358    -0.20400
F1743       F  0.56127162  0.41870024  0.51417586    -0.20700
F1744       F  0.55400475  0.45782902  0.56121332    -0.23400
C1745       C  0.60558149  0.33590850  0.52775363    -0.06200
C1746       C  0.63821235  0.33931559  0.52710558    -0.00300
C1747       C  0.65321002  0.33190775  0.49473376    -0.08800
C1748       C  0.63548494  0.33323268  0.46433661    -0.06200
C1749       C  0.60298494  0.33561921  0.46480609    -0.00300
C1750       C  0.58796945  0.33036976  0.49741920    -0.08700
C1751       C  0.55432501  0.31572157  0.50080005     0.61600
H1752       H  0.59373764  0.33734774  0.55230474     0.12300
H1753       H  0.64718866  0.33296281  0.43967288     0.12300
C1754       C  0.68748751  0.32141965  0.49146330     0.61900
F1755       F  0.53421587  0.34896003  0.49311209    -0.23300
F1756       F  0.54902900  0.28142469  0.47895397    -0.20600
F1757       F  0.54751999  0.30148667  0.53375358    -0.20300
F1758       F  0.69512686  0.28917837  0.51468474    -0.20400
F1759       F  0.70507997  0.35788598  0.49725519    -0.20700
F1760       F  0.69508590  0.30648514  0.45909609    -0.23400
C1761       C  0.98501172  0.28756055  0.34070234    -0.06200
C1762       C  0.51593568  0.28629855  0.34729682    -0.00300
C1763       C  0.53122088  0.24567073  0.34711400    -0.08800
C1764       C  0.51317918  0.20753468  0.34465144    -0.06200
C1765       C  0.98189683  0.20866018  0.34423503    -0.00300
C1766       C  0.96685734  0.24922407  0.34053629    -0.08700
C1767       C  0.93174906  0.25260968  0.33924913     0.61600
H1768       H  0.97364171  0.31863756  0.33903844     0.12300
H1769       H  0.52456180  0.17635419  0.34623615     0.12300
C1770       C  0.56600201  0.24200219  0.35244220     0.61900
F1771       F  0.92203144  0.29500992  0.33490752    -0.23300
F1772       F  0.91886139  0.23705144  0.36954841    -0.20600
F1773       F  0.92071119  0.22874250  0.31209051    -0.20300
F1774       F  0.57366476  0.25838680  0.38415658    -0.20400
F1775       F  0.58168423  0.26490981  0.32703424    -0.20700
F1776       F  0.57601982  0.19943842  0.35123681    -0.23400
C1777       C  0.50683015  0.99834147  0.46513008    -0.06200
C1778       C  0.98553385  0.02754697  0.47584066    -0.00300
C1779       C  0.99053367  0.05143382  0.50633045    -0.08800
C1780       C  0.01584584  0.04034165  0.52678126    -0.06200
C1781       C  0.53395292  0.00775313  0.51785241    -0.00300
C1782       C  0.53237164  0.98903256  0.48534866    -0.08700
C1783       C  0.55619353  0.95682960  0.47254590     0.61600
H1784       H  0.50538245  0.98302169  0.44034564     0.12300
H1785       H  0.01859294  0.05512832  0.55166610     0.12300
C1786       C  0.96928293  0.08755989  0.51806976     0.61900
F1787       F  0.56880653  0.97196458  0.44217590    -0.23300
F1788       F  0.54200269  0.91727682  0.46694979    -0.20600
F1789       F  0.58026147  0.95096335  0.49530866    -0.20300
F1790       F  0.93866982  0.07441873  0.51632050    -0.20400
F1791       F  0.97412708  0.12357702  0.49747341    -0.20700
F1792       F  0.97494527  0.09949291  0.55155105    -0.23400
C1793       C  0.83825422  0.15765598  0.49009707    -0.06200
C1794       C  0.85436265  0.15718724  0.52147626    -0.00300
C1795       C  0.88708953  0.16339693  0.52000042    -0.08800
C1796       C  0.90235307  0.16446065  0.48761405    -0.06200
C1797       C  0.88651838  0.15912059  0.45642053    -0.00300
C1798       C  0.85351512  0.15891468  0.45780129    -0.08700
C1799       C  0.83397339  0.15906170  0.42564126     0.61600
H1800       H  0.81324584  0.15439313  0.49073679     0.12300
H1801       H  0.92731729  0.16712677  0.48668433     0.12300
C1802       C  0.90626274  0.16804070  0.55218324     0.61900
F1803       F  0.80346551  0.17009017  0.43269463    -0.23300
F1804       F  0.83403260  0.11834275  0.41109598    -0.20600
F1805       F  0.84558340  0.18919835  0.40236204    -0.20300
F1806       F  0.90787233  0.12864507  0.56919844    -0.20400
F1807       F  0.89297601  0.19866609  0.57342481    -0.20700
F1808       F  0.93628894  0.18149969  0.54479261    -0.23400
C1809       C  0.65036960  0.66030255  0.99332961    -0.06200
C1810       C  0.63378750  0.65556646  0.96246565    -0.00300
C1811       C  0.60078223  0.65622935  0.96494752    -0.08800
C1812       C  0.58621612  0.65645477  0.99780461    -0.06200
C1813       C  0.60290936  0.65600391  0.02878078    -0.00300
C1814       C  0.63571171  0.66081385  0.02616777    -0.08700
C1815       C  0.65546415  0.66681621  0.05772850     0.61600
H1816       H  0.67541678  0.66165106  0.99183027     0.12300
H1817       H  0.56124005  0.65487229  0.99938902     0.12300
C1818       C  0.58057271  0.65610163  0.93330453     0.61900
F1819       F  0.68517814  0.68068223  0.04928602    -0.23300
F1820       F  0.65773560  0.62803039  0.07547264    -0.20600
F1821       F  0.64230646  0.69785960  0.07868821    -0.20300
F1822       F  0.58115835  0.61559666  0.91836124    -0.20400
F1823       F  0.59115989  0.68699522  0.91006926    -0.20700
F1824       F  0.55000932  0.66587625  0.94113243    -0.23400
C1825       C  0.97418996  0.52939530  0.96739598    -0.06200
C1826       C  0.95711286  0.49276897  0.97762848    -0.00300
C1827       C  0.96221797  0.47337961  0.00969546    -0.08800
C1828       C  0.48767900  0.48414305  0.02922394    -0.06200
C1829       C  0.50580342  0.51984962  0.01826275    -0.00300
C1830       C  0.99946280  0.54403744  0.98645385    -0.08700
C1831       C  0.01901011  0.58124867  0.97247958     0.61600
H1832       H  0.96976222  0.54345805  0.94241132     0.12300
H1833       H  0.49357712  0.46625630  0.05223241     0.12300
C1834       C  0.44533394  0.42945827  0.02281675     0.61900
F1835       F  0.01283929  0.58977286  0.93836034    -0.23300
F1836       F  0.54665370  0.57141598  0.97427055    -0.20600
F1837       F  0.01252484  0.61827480  0.99086656    -0.20300
F1838       F  0.46450360  0.39426657  0.01736521    -0.20400
F1839       F  0.91638838  0.42937112  0.00469644    -0.20700
F1840       F  0.43845720  0.43181867  0.05737617    -0.23400
C1841       C  0.55451654  0.51489240  0.27661706    -0.06200
C1842       C  0.56774895  0.47284717  0.27841975    -0.00300
C1843       C  0.58079798  0.45533112  0.24826449    -0.08800
C1844       C  0.58061263  0.48068690  0.21794793    -0.06200
C1845       C  0.56769862  0.52294774  0.21625007    -0.00300
C1846       C  0.55428881  0.54020165  0.24629784    -0.08700
C1847       C  0.53907851  0.58448598  0.24634363     0.61600
H1848       H  0.54413319  0.52820863  0.29957075     0.12300
H1849       H  0.59070930  0.46723950  0.19488687     0.12300
C1850       C  0.59514346  0.41046721  0.24797670     0.61900
F1851       F  0.52603316  0.59420498  0.27790132    -0.23300
F1852       F  0.03036605  0.60461649  0.23134355    -0.20600
F1853       F  0.56096028  0.61605050  0.23858268    -0.20300
F1854       F  0.57273748  0.37979952  0.25624540    -0.20400
F1855       F  0.61888674  0.40838285  0.27149832    -0.20700
F1856       F  0.60737773  0.40015067  0.21616112    -0.23400
C1857       C  0.93453544  0.97446327  0.27512987    -0.06200
C1858       C  0.92381777  0.01788567  0.27685439    -0.00300
C1859       C  0.90913762  0.03560917  0.24777955    -0.08800
C1860       C  0.90629406  0.00975847  0.21830328    -0.06200
C1861       C  0.91787991  0.96686112  0.21615989    -0.00300
C1862       C  0.93185432  0.94868090  0.24544980    -0.08700
C1863       C  0.44654278  0.90418683  0.24664258     0.61600
H1864       H  0.94510253  0.96044505  0.29760405     0.12300
H1865       H  0.89518319  0.02356695  0.19603512     0.12300
C1866       C  0.89608767  0.08126868  0.24773361     0.61900
F1867       F  0.46110084  0.89472748  0.27722864    -0.23300
F1868       F  0.46838732  0.90127057  0.22059599    -0.20600
F1869       F  0.42356437  0.87349963  0.24175344    -0.20300
F1870       F  0.91995263  0.11085828  0.25169444    -0.20400
F1871       F  0.87476877  0.08562818  0.27419602    -0.20700
F1872       F  0.88117104  0.09114109  0.21744036    -0.23400
C1873       C  0.96051447  0.74932869  0.14896616    -0.06200
C1874       C  0.97647565  0.78865260  0.14363261    -0.00300
C1875       C  0.51075137  0.78687379  0.14546361    -0.08800
C1876       C  0.52632085  0.74668586  0.14576123    -0.06200
C1877       C  0.51002775  0.70732820  0.14648909    -0.00300
C1878       C  0.97654221  0.70977923  0.15298207    -0.08700
C1879       C  0.95780661  0.66926026  0.16129233     0.61600
H1880       H  0.93536795  0.74908014  0.14869919     0.12300
H1881       H  0.55134992  0.74603386  0.14285632     0.12300
C1882       C  0.53017086  0.82794600  0.14564176     0.61900
F1883       F  0.93563106  0.67845973  0.18606920    -0.23300
F1884       F  0.97628424  0.63637265  0.17403195    -0.20600
F1885       F  0.94305891  0.65497921  0.13218258    -0.20300
F1886       F  0.51509974  0.85999874  0.16383655    -0.20400
F1887       F  0.53570592  0.84197808  0.11241722    -0.20700
F1888       F  0.55843376  0.82078948  0.16122057    -0.23400
C1889       C  0.48625367  0.95428691  0.99567450    -0.06200
C1890       C  0.96390303  0.98105281  0.00966356    -0.00300
C1891       C  0.96774773  0.02627169  0.00573294    -0.08800
C1892       C  0.99455576  0.04178486  0.98944300    -0.06200
C1893       C  0.51431123  0.01605176  0.97289264    -0.00300
C1894       C  0.51134277  0.97052695  0.97673543    -0.08700
C1895       C  0.53438313  0.93871563  0.96144529     0.61600
H1896       H  0.48436141  0.91959384  0.99973089     0.12300
H1897       H  0.99724025  0.07652409  0.98606313     0.12300
C1898       C  0.94404688  0.05898674  0.01806937     0.61900
F1899       F  0.53419476  0.89971242  0.97924897    -0.23300
F1900       F  0.56415513  0.95525489  0.96284418    -0.20600
F1901       F  0.52679073  0.93054702  0.92777735    -0.20300
F1902       F  0.95456400  0.07837817  0.04758207    -0.20400
F1903       F  0.91539230  0.03999164  0.02446662    -0.20700
F1904       F  0.94002493  0.09073570  0.99331049    -0.23400
C1905       C  0.89989210  0.84464556  0.99637232    -0.06200
C1906       C  0.88204802  0.84366310  0.02707210    -0.00300
C1907       C  0.84925113  0.84116953  0.02379665    -0.08800
C1908       C  0.83587492  0.84362241  0.99078052    -0.06200
C1909       C  0.85358238  0.84837821  0.96021956    -0.00300
C1910       C  0.88646273  0.84686991  0.96323333    -0.08700
C1911       C  0.90762130  0.84811773  0.93189230     0.61600
H1912       H  0.92489773  0.84586021  0.99843918     0.12300
H1913       H  0.81084679  0.84385292  0.98897491     0.12300
C1914       C  0.82797121  0.83640730  0.05482852     0.61900
F1915       F  0.93822409  0.84003250  0.94020746    -0.23300
F1916       F  0.90641006  0.88856641  0.91645384    -0.20600
F1917       F  0.89845955  0.81674076  0.90890955    -0.20300
F1918       F  0.82713402  0.87488411  0.07274312    -0.20400
F1919       F  0.83851352  0.80341316  0.07584252    -0.20700
F1920       F  0.79788205  0.82617774  0.04562752    -0.23400
C1921       C  0.83547734  0.32911905  0.99812463    -0.06200
C1922       C  0.85166813  0.33236060  0.02945768    -0.00300
C1923       C  0.88435415  0.32753244  0.02824719    -0.08800
C1924       C  0.89944022  0.32620551  0.99588981    -0.06200
C1925       C  0.88346627  0.33119587  0.96453477    -0.00300
C1926       C  0.85063127  0.32920080  0.96575969    -0.08700
C1927       C  0.83136828  0.32977187  0.93350201     0.61600
H1928       H  0.81038153  0.32999931  0.99894156     0.12300
H1929       H  0.92452906  0.32489184  0.99503255     0.12300
C1930       C  0.90366862  0.32607818  0.06048831     0.61900
F1931       F  0.80019785  0.32253378  0.94047772    -0.23300
F1932       F  0.84135337  0.29756747  0.91160020    -0.20600
F1933       F  0.83417682  0.36964652  0.91747633    -0.20300
F1934       F  0.89283876  0.29341735  0.08197195    -0.20400
F1935       F  0.90194460  0.36536845  0.07707052    -0.20700
F1936       F  0.93465020  0.31794833  0.05340600    -0.23400
C1937       C  0.74985609  0.48776376  0.96638210    -0.06200
C1938       C  0.72743769  0.51755791  0.97785127    -0.00300
C1939       C  0.73073622  0.53735345  0.01015650    -0.08800
C1940       C  0.75699284  0.52740294  0.02943833    -0.06200
C1941       C  0.77768393  0.49503986  0.01896637    -0.00300
C1942       C  0.77506610  0.47640700  0.98644117    -0.08700
C1943       C  0.79713545  0.44203312  0.97334943     0.61600
H1944       H  0.74816916  0.47361106  0.94112551     0.12300
H1945       H  0.75904452  0.54057410  0.05500780     0.12300
C1946       C  0.70665223  0.56734527  0.02563278     0.61900
F1947       F  0.80726262  0.45303570  0.94079439    -0.23300
F1948       F  0.78168371  0.40275705  0.97204701    -0.20600
F1949       F  0.82298894  0.43756019  0.99380606    -0.20300
F1950       F  0.67749040  0.56050457  0.01213181    -0.20400
F1951       F  0.71569893  0.60975171  0.01966825    -0.20700
F1952       F  0.70421159  0.56045145  0.06063931    -0.23400
C1953       C  0.93415504  0.53125494  0.09190180    -0.06200
C1954       C  0.95562184  0.52232139  0.11797597    -0.00300
C1955       C  0.94675781  0.49395726  0.14532407    -0.08800
C1956       C  0.91737162  0.47390085  0.14430437    -0.06200
C1957       C  0.89665591  0.48206079  0.11764618    -0.00300
C1958       C  0.90473304  0.51171948  0.09130991    -0.08700
C1959       C  0.88284368  0.52139167  0.06199234     0.61600
H1960       H  0.94084896  0.55292825  0.07115960     0.12300
H1961       H  0.91023689  0.45149979  0.16442342     0.12300
C1962       C  0.96767848  0.48484837  0.17564274     0.61900
F1963       F  0.89702724  0.54600597  0.03645135    -0.23300
F1964       F  0.85752875  0.54418168  0.07415873    -0.20600
F1965       F  0.87280851  0.48309685  0.04749072    -0.20300
F1966       F  0.97895774  0.52338316  0.18862620    -0.20400
F1967       F  0.99215954  0.45887384  0.16554856    -0.20700
F1968       F  0.95190782  0.46355754  0.20190808    -0.23400
C1969       C  0.65223538  0.47806272  0.08637353    -0.06200
C1970       C  0.64595080  0.50827861  0.11230180    -0.00300
C1971       C  0.66785594  0.51379355  0.13911278    -0.08800
C1972       C  0.69572775  0.49072869  0.13746807    -0.06200
C1973       C  0.70217349  0.46142356  0.11130703    -0.00300
C1974       C  0.68006041  0.45439347  0.08533091    -0.08700
C1975       C  0.68625432  0.42389497  0.05572686     0.61600
H1976       H  0.63533329  0.47369592  0.06636996     0.12300
H1977       H  0.71343633  0.49644170  0.15630158     0.12300
C1978       C  0.66247425  0.54308552  0.16982833     0.61900
F1979       F  0.66195341  0.42316354  0.03281720    -0.23300
F1980       F  0.69032590  0.38219849  0.06797860    -0.20600
F1981       F  0.71255940  0.43703626  0.03800678    -0.20300
F1982       F  0.63481598  0.53220952  0.18586218    -0.20400
F1983       F  0.66192222  0.58601185  0.15941234    -0.20700
F1984       F  0.68559791  0.53897434  0.19401530    -0.23400
C1985       C  0.78497777  0.99865194  0.13335791    -0.06200
C1986       C  0.77850513  0.02490825  0.10480827    -0.00300
C1987       C  0.80214692  0.03156061  0.07941763    -0.08800
C1988       C  0.83037912  0.00942607  0.08287733    -0.06200
C1989       C  0.83634516  0.98203806  0.11082153    -0.00300
C1990       C  0.81351311  0.97742690  0.13718667    -0.08700
C1991       C  0.81891385  0.95113034  0.16969273     0.61600
H1992       H  0.76718846  0.99449239  0.15288613     0.12300
H1993       H  0.84821155  0.01314992  0.06333822     0.12300
C1994       C  0.79813585  0.06104279  0.04838166     0.61900
F1995       F  0.79522798  0.95640604  0.19352352    -0.23300
F1996       F  0.84616170  0.96431619  0.18487933    -0.20600
F1997       F  0.82051184  0.90751103  0.16198134    -0.20300
F1998       F  0.79274942  0.10308486  0.05885359    -0.20400
F1999       F  0.77361989  0.04655287  0.02913807    -0.20700
F2000       F  0.82417090  0.06184737  0.02727940    -0.23400
C2001       C  0.57076349  0.01155746  0.14127040    -0.06200
C2002       C  0.58681952  0.01740889  0.11010424    -0.00300
C2003       C  0.57287173  0.00470524  0.07919733    -0.08800
C2004       C  0.54360473  0.98458383  0.08067994    -0.06200
C2005       C  0.52756487  0.97796666  0.11185524    -0.00300
C2006       C  0.54111327  0.99225452  0.14280280    -0.08700
C2007       C  0.52494709  0.98656510  0.17732093     0.61600
H2008       H  0.58185455  0.02208230  0.16456692     0.12300
H2009       H  0.53279979  0.97429022  0.05714645     0.12300
C2010       C  0.58855841  0.01261828  0.04472705     0.61900
F2011       F  0.54401748  0.99793042  0.20416257    -0.23300
F2012       F  0.51634701  0.94375472  0.18199421    -0.20600
F2013       F  0.49888094  0.01248355  0.17890657    -0.20300
F2014       F  0.61189184  0.98268725  0.04006486    -0.20400
F2015       F  0.60098523  0.05398807  0.04285074    -0.20700
F2016       F  0.56786960  0.00858139  0.01821853    -0.23400
C2017       C  0.71485168  0.24441203  0.15020978    -0.06200
C2018       C  0.72985208  0.20466129  0.14506816    -0.00300
C2019       C  0.76281674  0.20339978  0.14806899    -0.08800
C2020       C  0.77962123  0.24275863  0.14892327    -0.06200
C2021       C  0.76450054  0.28284638  0.14967656    -0.00300
C2022       C  0.73172011  0.28335282  0.15355903    -0.08700
C2023       C  0.71359332  0.32483358  0.15846431     0.61600
H2024       H  0.68973768  0.24570131  0.14925839     0.12300
H2025       H  0.80471917  0.24218149  0.14668416     0.12300
C2026       C  0.78139105  0.16172816  0.14887243     0.61900
F2027       F  0.69117680  0.31869073  0.18367496    -0.23300
F2028       F  0.69915439  0.33570615  0.12819900    -0.20600
F2029       F  0.73237656  0.35885804  0.16844799    -0.20300
F2030       F  0.76317503  0.12584777  0.15637303    -0.20400
F2031       F  0.80376754  0.16431458  0.17395965    -0.20700
F2032       F  0.79596674  0.15602615  0.11755390    -0.23400
C2033       C  0.58491260  0.16271837  0.99339185    -0.06200
C2034       C  0.60256154  0.16239135  0.96256246    -0.00300
C2035       C  0.63524201  0.16733959  0.96539725    -0.08800
C2036       C  0.64894068  0.16654311  0.99833100    -0.06200
C2037       C  0.63142933  0.16233067  0.02908685    -0.00300
C2038       C  0.59857016  0.16344563  0.02635967    -0.08700
C2039       C  0.57769395  0.16586475  0.05785859     0.61600
H2040       H  0.55991146  0.16047662  0.99173177     0.12300
H2041       H  0.67398743  0.16720883  0.99996661     0.12300
C2042       C  0.65591456  0.17343446  0.93402595     0.61900
F2043       F  0.54739374  0.17563763  0.04933567    -0.23300
F2044       F  0.58823055  0.19811086  0.07932751    -0.20600
F2045       F  0.57745479  0.12662396  0.07515835    -0.20300
F2046       F  0.64353471  0.20489726  0.91277398    -0.20400
F2047       F  0.65844837  0.13479360  0.91653071    -0.20700
F2048       F  0.68549809  0.18679147  0.94273245    -0.23400
C2049       C  0.71954759  0.04845700  0.98012591    -0.06200
C2050       C  0.70608883  0.01937134  0.00369103    -0.00300
C2051       C  0.71518986  0.97536407  0.00332713    -0.08800
C2052       C  0.74188322  0.96420221  0.98520269    -0.06200
C2053       C  0.75773856  0.99423634  0.96425298    -0.00300
C2054       C  0.74582582  0.03721492  0.96079367    -0.08700
C2055       C  0.76118494  0.07227370  0.93864653     0.61600
H2056       H  0.71122545  0.08152786  0.97942810     0.12300
H2057       H  0.74959371  0.93082685  0.98654400     0.12300
C2058       C  0.69839192  0.93947649  0.02283101     0.61900
F2059       F  0.75009092  0.11322277  0.94624621    -0.23300
F2060       F  0.75526117  0.06476990  0.90446176    -0.20600
F2061       F  0.79286472  0.07283353  0.94406851    -0.20300
F2062       F  0.66851836  0.95122055  0.03176261    -0.20400
F2063       F  0.71476187  0.92912103  0.05203747    -0.20700
F2064       F  0.69630442  0.90293712  0.00260318    -0.23400
C2065       C  0.83688670  0.65755700  0.49667942    -0.06200
C2066       C  0.85267902  0.65944677  0.46462243    -0.00300
C2067       C  0.88515138  0.66745049  0.46542288    -0.08800
C2068       C  0.90080273  0.66556121  0.49731473    -0.06200
C2069       C  0.88533063  0.65768763  0.52896090    -0.00300
C2070       C  0.85240886  0.65713225  0.52860895    -0.08700
C2071       C  0.83348907  0.65330846  0.56140375     0.61600
H2072       H  0.81190871  0.65382820  0.49669839     0.12300
H2073       H  0.92586770  0.66812962  0.49747939     0.12300
C2074       C  0.90361323  0.67670736  0.43297857     0.61900
F2075       F  0.80207794  0.65816282  0.55564638    -0.23300
F2076       F  0.84225946  0.68527138  0.58402102    -0.20600
F2077       F  0.83803690  0.61297089  0.57594954    -0.20300
F2078       F  0.88950034  0.70947818  0.41449995    -0.20400
F2079       F  0.90525908  0.63967930  0.41343781    -0.20700
F2080       F  0.93358795  0.69007010  0.43996401    -0.23400
C2081       C  0.78132655  0.52891739  0.50287545    -0.06200
C2082       C  0.78810426  0.50250254  0.47490794    -0.00300
C2083       C  0.77389377  0.46158075  0.47232412    -0.08800
C2084       C  0.74854318  0.45249363  0.49372715    -0.06200
C2085       C  0.73780395  0.48244099  0.51811848    -0.00300
C2086       C  0.75465241  0.52182969  0.52281560    -0.08700
C2087       C  0.74399977  0.55803306  0.54648551     0.61600
H2088       H  0.79386712  0.55936377  0.50476801     0.12300
H2089       H  0.73665845  0.42186880  0.49085120     0.12300
C2090       C  0.78325346  0.42934710  0.44503693     0.61900
F2091       F  0.76027958  0.59611488  0.54055611    -0.23300
F2092       F  0.74851952  0.54641290  0.58027929    -0.20600
F2093       F  0.71298547  0.56697411  0.54104302    -0.20300
F2094       F  0.81520262  0.42885909  0.44119874    -0.20400
F2095       F  0.76985307  0.44047365  0.41425143    -0.20700
F2096       F  0.77370433  0.38776768  0.45379178    -0.23400
C2097       C  0.90312190  0.47565527  0.37768430    -0.06200
C2098       C  0.90200424  0.51940420  0.36736585    -0.00300
C2099       C  0.93008663  0.54040237  0.35692083    -0.08800
C2100       C  0.95816055  0.51821567  0.36125771    -0.06200
C2101       C  0.95938686  0.47508747  0.37298776    -0.00300
C2102       C  0.93115347  0.45278444  0.38015320    -0.08700
C2103       C  0.93007601  0.40522809  0.39044701     0.61600
H2104       H  0.88166478  0.45952619  0.38499685     0.12300
H2105       H  0.97962121  0.53522044  0.35519974     0.12300
C2106       C  0.93283816  0.58496976  0.34010807     0.61900
F2107       F  0.90025002  0.38847196  0.38921620    -0.23300
F2108       F  0.94062819  0.40019425  0.42354850    -0.20600
F2109       F  0.94827304  0.38139910  0.36823774    -0.20300
F2110       F  0.94640263  0.61341236  0.36274723    -0.20400
F2111       F  0.90505225  0.60187825  0.32937270    -0.20700
F2112       F  0.95172808  0.58219736  0.31131016    -0.23400
C2113       C  0.65664090  0.51196989  0.35745646    -0.06200
C2114       C  0.64744770  0.48915402  0.38706658    -0.00300
C2115       C  0.66724465  0.48720716  0.41554292    -0.08800
C2116       C  0.69650468  0.50747677  0.41310599    -0.06200
C2117       C  0.70598673  0.52968717  0.38319789    -0.00300
C2118       C  0.68575057  0.53254466  0.35506813    -0.08700
C2119       C  0.69555366  0.55541105  0.32227664     0.61600
H2120       H  0.64097267  0.51278207  0.33593117     0.12300
H2121       H  0.71249808  0.50543709  0.43429602     0.12300
C2122       C  0.65780688  0.46209356  0.44746488     0.61900
F2123       F  0.67280664  0.55346860  0.29754644    -0.23300
F2124       F  0.72188156  0.53596206  0.30939759    -0.20600
F2125       F  0.70187857  0.59849958  0.32878427    -0.20300
F2126       F  0.65319854  0.41917311  0.43913028    -0.20400
F2127       F  0.63059146  0.47876948  0.46092309    -0.20700
F2128       F  0.68023891  0.46400570  0.47241184    -0.23400
C2129       C  0.78677078  0.50678032  0.26375877    -0.06200
C2130       C  0.81392571  0.52994370  0.27221008    -0.00300
C2131       C  0.84097722  0.52291497  0.25187109    -0.08800
C2132       C  0.83967785  0.49284185  0.22450624    -0.06200
C2133       C  0.81256791  0.46906933  0.21723644    -0.00300
C2134       C  0.78567712  0.47613370  0.23736818    -0.08700
C2135       C  0.75614355  0.44992044  0.23202057     0.61600
H2136       H  0.76626292  0.51157862  0.27911393     0.12300
H2137       H  0.85969344  0.48841053  0.20791407     0.12300
C2138       C  0.87117000  0.54608414  0.25924949     0.61900
F2139       F  0.73366597  0.45879253  0.25655337    -0.23300
F2140       F  0.76290161  0.40618783  0.23388745    -0.20600
F2141       F  0.74365206  0.45906308  0.20044175    -0.20300
F2142       F  0.88132255  0.53420355  0.29135959    -0.20400
F2143       F  0.86670135  0.59044177  0.25791974    -0.20700
F2144       F  0.89423206  0.53577879  0.23576983    -0.23400
C2145       C  0.80037786  0.97830796  0.41447002    -0.06200
C2146       C  0.78434827  0.97405049  0.38339533    -0.00300
C2147       C  0.79870039  0.98867991  0.35253842    -0.08800
C2148       C  0.82880567  0.00610500  0.35384728    -0.06200
C2149       C  0.84458587  0.01088693  0.38484960    -0.00300
C2150       C  0.83012776  0.99747052  0.41580260    -0.08700
C2151       C  0.84544417  0.00506430  0.45005701     0.61600
H2152       H  0.78899612  0.96770814  0.43791690     0.12300
H2153       H  0.84013256  0.01715540  0.33047473     0.12300
C2154       C  0.78218241  0.98759716  0.31843702     0.61900
F2155       F  0.82515533  0.99726964  0.47695386    -0.23300
F2156       F  0.85531900  0.04766493  0.45238873    -0.20600
F2157       F  0.87059391  0.97776297  0.45354822    -0.20300
F2158       F  0.75901746  0.01836593  0.31866840    -0.20400
F2159       F  0.76951939  0.94697472  0.31297320    -0.20700
F2160       F  0.80199712  0.99707027  0.29123437    -0.23400
C2161       C  0.56804556  0.96007625  0.36586071    -0.06200
C2162       C  0.59341727  0.98665580  0.37382497    -0.00300
C2163       C  0.58849956  0.03156198  0.37945670    -0.08800
C2164       C  0.55792643  0.04723537  0.37922099    -0.06200
C2165       C  0.53240322  0.02005666  0.37301995    -0.00300
C2166       C  0.53758254  0.97560414  0.36538876    -0.08700
C2167       C  0.51157709  0.94380359  0.35744453     0.61600
H2168       H  0.57222191  0.92620891  0.36062371     0.12300
H2169       H  0.55363957  0.08112008  0.38448250     0.12300
C2170       C  0.61497521  0.06324866  0.38519787     0.61900
F2171       F  0.52240287  0.90214907  0.35210210    -0.23300
F2172       F  0.49679630  0.95681975  0.32791661    -0.20600
F2173       F  0.49060135  0.94176428  0.38441867    -0.20300
F2174       F  0.63675214  0.05973389  0.35911103    -0.20400
F2175       F  0.62867933  0.05462137  0.41627759    -0.20700
F2176       F  0.60488941  0.10581963  0.38571951    -0.23400
C2177       C  0.69503556  0.01133434  0.26808209    -0.06200
C2178       C  0.67677139  0.97353416  0.27281262    -0.00300
C2179       C  0.65474495  0.96305925  0.24752945    -0.08800
C2180       C  0.65246208  0.99014538  0.21830742    -0.06200
C2181       C  0.67112427  0.02753412  0.21350207    -0.00300
C2182       C  0.69287310  0.03823588  0.23882740    -0.08700
C2183       C  0.71437200  0.07695810  0.23443801     0.61600
H2184       H  0.71092363  0.02016267  0.28801579     0.12300
H2185       H  0.63615565  0.98192060  0.19842561     0.12300
C2186       C  0.63310487  0.92441580  0.25174239     0.61900
F2187       F  0.73438515  0.08120165  0.26172546    -0.23300
F2188       F  0.69708566  0.11451550  0.23205837    -0.20600
F2189       F  0.73203717  0.07223495  0.20494956    -0.20300
F2190       F  0.61608830  0.92817443  0.28178834    -0.20400
F2191       F  0.65024325  0.88662448  0.25271898    -0.20700
F2192       F  0.61238782  0.92137465  0.22499259    -0.23400
C2193       C  0.76229175  0.79096408  0.33798141    -0.06200
C2194       C  0.72973461  0.78894293  0.34236525    -0.00300
C2195       C  0.71503593  0.74770100  0.34110392    -0.08800
C2196       C  0.73371224  0.71023603  0.34228227    -0.06200
C2197       C  0.76628739  0.71263226  0.34285395    -0.00300
C2198       C  0.78081665  0.75324967  0.33751666    -0.08700
C2199       C  0.81574623  0.75672152  0.33343728     0.61600
H2200       H  0.77338183  0.82253677  0.33725029     0.12300
H2201       H  0.72293756  0.67863505  0.34524318     0.12300
C2202       C  0.67998962  0.74279071  0.34047554     0.61900
F2203       F  0.82516308  0.79888679  0.32658191    -0.23300
F2204       F  0.82539730  0.73113318  0.30642820    -0.20600
F2205       F  0.83000802  0.74283708  0.36310098    -0.20300
F2206       F  0.66828611  0.76605314  0.31309765    -0.20400
F2207       F  0.66710711  0.75781862  0.37068645    -0.20700
F2208       F  0.67103138  0.69994293  0.33665507    -0.23400
C2209       C  0.65171397  0.84074807  0.48827833    -0.06200
C2210       C  0.63466639  0.84006678  0.45741736    -0.00300
C2211       C  0.60186834  0.83659928  0.46041290    -0.08800
C2212       C  0.58762059  0.83806605  0.49329479    -0.06200
C2213       C  0.60438031  0.84408544  0.52391507    -0.00300
C2214       C  0.63731738  0.84325707  0.52127741    -0.08700
C2215       C  0.65740334  0.84785615  0.55265487     0.61600
H2216       H  0.67675263  0.84246837  0.48635398     0.12300
H2217       H  0.56253361  0.83735105  0.49501014     0.12300
C2218       C  0.58144263  0.83311713  0.42913608     0.61900
F2219       F  0.68861545  0.84288331  0.54493072    -0.23300
F2220       F  0.64930785  0.81660767  0.57674166    -0.20600
F2221       F  0.65338828  0.88856714  0.56639351    -0.20300
F2222       F  0.59336367  0.80267985  0.40678324    -0.20400
F2223       F  0.57991816  0.87298487  0.41288781    -0.20700
F2224       F  0.55149816  0.82044740  0.43779313    -0.23400
C2225       C  0.73082062  0.94324395  0.49946818    -0.06200
C2226       C  0.70981531  0.97122839  0.48355351    -0.00300
C2227       C  0.71170369  0.01605600  0.48906378    -0.08800
C2228       C  0.73841864  0.03255978  0.50384243    -0.06200
C2229       C  0.76161908  0.00484569  0.51628070    -0.00300
C2230       C  0.75758919  0.95922811  0.51463211    -0.08700
C2231       C  0.78093104  0.92676924  0.52839365     0.61600
H2232       H  0.72813684  0.90852084  0.49655550     0.12300
H2233       H  0.74010679  0.06728930  0.50750860     0.12300
C2234       C  0.68595749  0.04683959  0.47940127     0.61900
F2235       F  0.77977978  0.88828945  0.51039449    -0.23300
F2236       F  0.77431806  0.91791977  0.56243328    -0.20600
F2237       F  0.81085302  0.94247186  0.52545056    -0.20300
F2238       F  0.65929900  0.02466224  0.47049523    -0.20400
F2239       F  0.69554014  0.07283698  0.45227146    -0.20700
F2240       F  0.67875767  0.07280947  0.50704107    -0.23400
loop_ 
_geom_bond_atom_site_label_1 
_geom_bond_atom_site_label_2 
_geom_bond_distance 
_geom_bond_site_symmetry_2 
_ccdc_geom_bond_type 
O1           C16   1.258       .  A
O1           Al9   1.876       .  S
C2           O12   1.261       .  A
C2            O3   1.267       .  A
C2         C1090   1.522       .  S
O3           Al5   1.952       .  S
O4            C6   1.263       .  A
O4           Al5   1.900       .  S
Al5          O13   1.970       .  S
Al5          O15   1.951       .  S
Al5          O14   1.768       .  S
C6           O19   1.259       .  A
C6         C1042   1.481       .  S
O7           C17   1.260       .  A
O7           Al9   1.889       .  S
O8           C21   1.264       .  A
O8          Al18   1.925       .  S
Al9          O22   1.888       .  S
Al9          O19   1.893       .  S
Al9          O14   1.775       .  S
O10          C17   1.251       .  A
O10         Al18   1.866       .  S
O11          C20   1.259       .  A
O11         Al18   1.878       .  S
O12         Al18   1.921       .  S
O13          C20   1.275       .  A
O14         Al18   1.780       .  S
O15          C16   1.278       .  A
C16        C1058   1.491       .  S
C17        C1106   1.451       .  S
C20        C1074   1.498       .  S
C21          O22   1.260       .  A
C21        C1026   1.472       .  S
O23          C38   1.258       .  A
O23         Al31   1.850       .  S
C24          O34   1.255       .  A
C24          O25   1.282       .  A
C24         C946   1.528       .  S
O25         Al27   2.006       .  S
O26          C28   1.255       .  A
O26         Al27   1.897       .  S
Al27         O35   1.936       .  S
Al27         O37   2.021       .  S
Al27         O36   1.780       .  S
C28          O41   1.259       .  A
C28         C978   1.483       .  S
O29          C39   1.259       .  A
O29         Al31   1.889       .  S
O30          C43   1.261       .  A
O30         Al40   1.907       .  S
Al31         O44   1.927       .  S
Al31         O41   1.914       .  S
Al31         O36   1.782       .  S
O32          C39   1.262       .  A
O32         Al40   1.870       .  S
O33          C42   1.255       .  A
O33         Al40   1.880       .  S
O34         Al40   1.864       .  S
O35          C42   1.264       .  A
O36         Al40   1.778       .  S
O37          C38   1.286       .  A
C38        C1010   1.512       .  S
C39         C962   1.450       .  S
C42        C1077   1.486       .  S
C43          O44   1.262       .  A
C43         C997   1.475       .  S
O45          C60   1.253       .  A
O45         Al53   1.864       .  S
C46          O56   1.260       .  A
C46          O47   1.267       .  A
C46         C917   1.520       .  S
O47         Al49   1.948       .  S
O48          C50   1.265       .  A
O48         Al49   1.924       .  S
Al49         O57   1.964       .  S
Al49         O59   1.956       .  S
Al49         O58   1.771       .  S
C50          O63   1.262       .  A
C50         C882   1.478       .  S
O51          C61   1.251       .  A
O51         Al53   1.863       .  S
O52          C65   1.260       .  A
O52         Al62   1.907       .  S
Al53         O66   1.905       .  S
Al53         O63   1.893       .  S
Al53         O58   1.776       .  S
O54          C61   1.259       .  A
O54         Al62   1.892       .  S
O55          C64   1.258       .  A
O55         Al62   1.884       .  S
O56         Al62   1.913       .  S
O57          C64   1.273       .  A
O58         Al62   1.780       .  S
O59          C60   1.275       .  A
C60        C1061   1.483       .  S
C61         C930   1.466       .  S
C64         C898   1.497       .  S
C65          O66   1.268       .  A
C65         C866   1.492       .  S
O67          C82   1.256       .  A
O67         Al75   1.860       .  S
C68          O78   1.253       .  A
C68          O69   1.277       .  A
C68         C802   1.519       .  S
O69         Al71   1.990       .  S
O70          C72   1.256       .  A
O70         Al71   1.896       .  S
Al71         O79   1.940       .  S
Al71         O81   1.988       .  S
Al71         O80   1.790       .  S
C72          O85   1.252       .  A
C72         C837   1.468       .  S
O73          C83   1.256       .  A
O73         Al75   1.880       .  S
O74          C87   1.259       .  A
O74         Al84   1.901       .  S
Al75         O88   1.903       .  S
Al75         O85   1.892       .  S
Al75         O80   1.791       .  S
O76          C83   1.256       .  A
O76         Al84   1.863       .  S
O77          C86   1.254       .  A
O77         Al84   1.877       .  S
O78         Al84   1.858       .  S
O79          C86   1.265       .  A
O80         Al84   1.789       .  S
O81          C82   1.280       .  A
C82        C1013   1.489       .  S
C83         C821   1.442       .  S
C86         C901   1.486       .  S
C87          O88   1.259       .  A
C87         C853   1.474       .  S
O89         C104   1.263       .  A
O89       Al1217   1.898       .  S
C90         O100   1.268       .  A
C90          O91   1.262       .  A
C90         C786   1.528       .  S
O91         Al93   1.920       .  S
O92          C94   1.252       .  A
O92         Al93   1.876       .  S
Al93        O101   1.873       .  S
Al93       O1223   1.931       .  S
Al93        O102   1.777       .  S
C94         O107   1.255       .  A
C94         C770   1.458       .  S
O95         C105   1.265       .  A
O95         Al97   1.892       .  S
O96         C109   1.280       .  A
O96        Al106   1.974       .  S
Al97        O110   1.862       .  S
Al97        O107   1.889       .  S
Al97       O1209   1.897       .  S
Al97        O102   1.779       .  S
O98         C105   1.262       .  A
O98        Al106   1.913       .  S
O99         C108   1.275       .  A
O99        Al106   1.977       .  S
O100       Al106   1.955       .  S
O101        C108   1.256       .  A
O102       Al106   1.773       .  S
O103        C104   1.268       .  A
O103      Al1213   1.930       .  S
C104        C885   1.484   1_655  S
C105        C869   1.487       .  S
C108        C754   1.504       .  S
C109        O110   1.255       .  A
C109        C741   1.501       .  S
O111        C126   1.262       .  A
O111      Al1239   1.891       .  S
C112        O122   1.268       .  A
C112        O113   1.267       .  A
C112        C693   1.529       .  S
O113       Al115   1.933       .  S
O114        C116   1.248       .  A
O114       Al115   1.867       .  S
Al115       O123   1.870       .  S
Al115      O1245   1.920   1_455  S
Al115       O124   1.780       .  S
C116        O129   1.255       .  A
C116        C709   1.473       .  S
O117        C127   1.266       .  A
O117       Al119   1.902       .  S
O118        C131   1.279       .  A
O118       Al128   1.967       .  S
Al119       O132   1.877       .  S
Al119       O129   1.889       .  S
Al119      O1231   1.891       .  S
Al119       O124   1.783       .  S
O120        C127   1.262       .  A
O120       Al128   1.912       .  S
O121        C130   1.270       .  A
O121       Al128   1.966       .  S
O122       Al128   1.942       .  S
O123        C130   1.251       .  A
O124       Al128   1.775       .  S
O125        C126   1.268       .  A
O125      Al1235   1.923       .  S
C126        C834   1.488       .  S
C127        C850   1.488       .  S
C130        C757   1.495       .  S
C131        O132   1.257       .  A
C131        C725   1.512       .  S
O133        C148   1.262   1_655  A
O133      Al1261   1.883       .  S
C134        O144   1.265       .  A
C134        O135   1.267       .  A
C134        C677   1.519       .  S
O135       Al137   1.932       .  S
O136        C138   1.245       .  A
O136       Al137   1.863       .  S
Al137       O145   1.857       .  S
Al137      O1267   1.940       .  S
Al137       O146   1.771       .  S
C138        O151   1.256       .  A
C138        C658   1.469       .  S
O139        C149   1.264       .  A
O139       Al141   1.890       .  S
O140        C153   1.279       .  A
O140       Al150   1.964       .  S
Al141       O154   1.889       .  S
Al141       O151   1.908       .  S
Al141      O1253   1.882       .  S
Al141       O146   1.779       .  S
O142        C149   1.270       .  A
O142       Al150   1.926       .  S
O143        C152   1.272       .  A
O143       Al150   1.971       .  S
O144       Al150   1.926       .  S
O145        C152   1.252       .  A
O146       Al150   1.769       .  S
O147        C148   1.272   1_655  A
O147      Al1257   1.939       .  S
C148       C1045   1.483       .  S
C149       C1029   1.468       .  S
C152        C645   1.503       .  S
C153        O154   1.258       .  A
C153        C738   1.503       .  S
O155        C170   1.266       .  A
O155      Al1283   1.896       .  S
C156        O166   1.273       .  A
C156        O157   1.264       .  A
C156        C629   1.522       .  S
O157       Al159   1.932       .  S
O158        C160   1.248       .  A
O158       Al159   1.868       .  S
Al159       O167   1.877       .  S
Al159      O1289   1.930   1_455  S
Al159       O168   1.773       .  S
C160        O173   1.255       .  A
C160        C610   1.447       .  S
O161        C171   1.264       .  A
O161       Al163   1.900       .  S
O162        C175   1.279       .  A
O162       Al172   1.966       .  S
Al163       O176   1.882       .  S
Al163       O173   1.893       .  S
Al163      O1275   1.891       .  S
Al163       O168   1.781       .  S
O164        C171   1.268       .  A
O164       Al172   1.935       .  S
O165        C174   1.271       .  A
O165       Al172   1.969       .  S
O166       Al172   1.947       .  S
O167        C174   1.255       .  A
O168       Al172   1.767       .  S
O169        C170   1.265       .  A
O169      Al1279   1.926       .  S
C170        C981   1.490       .  S
C171        C994   1.473       .  S
C174        C642   1.504       .  S
C175        O176   1.257       .  A
C175        C722   1.511       .  S
O177        C192   1.268       .  A
O177       Al185   1.903       .  S
C178        O188   1.267       .  A
C178        O179   1.259       .  A
C178        C674   1.521       .  S
O179       Al181   1.901       .  S
O180        C182   1.251       .  A
O180       Al181   1.885       .  S
Al181       O189   1.858       .  S
Al181       O191   1.916       .  S
Al181       O190   1.774       .  S
C182        O195   1.242       .  A
C182       C1109   1.454       .  S
O183        C193   1.265       .  A
O183       Al185   1.881       .  S
O184        C197   1.274       .  A
O184       Al194   1.967       .  S
Al185       O198   1.845       .  S
Al185       O195   1.853       .  S
Al185       O190   1.786       .  S
O186        C193   1.275       .  A
O186       Al194   1.938       .  S
O187        C196   1.274       .  A
O187       Al194   1.976       .  S
O188       Al194   1.946       .  S
O189        C196   1.250       .  A
O190       Al194   1.770       .  S
O191        C192   1.272       .  A
C192        C565   1.489       .  S
C193        C549   1.469       .  S
C196        C597   1.507       .  S
C197        O198   1.245       .  A
C197        C578   1.483       .  S
O199        C214   1.267       .  A
O199       Al207   1.906       .  S
C200        O210   1.273       .  A
C200        O201   1.261       .  A
C200        C626   1.531       .  S
O201       Al203   1.921       .  S
O202        C204   1.254       .  A
O202       Al203   1.876       .  S
Al203       O211   1.874       .  S
Al203       O213   1.916       .  S
Al203       O212   1.784       .  S
C204        O217   1.248       .  A
C204        C965   1.477       .  S
O205        C215   1.269       .  A
O205       Al207   1.918       .  S
O206        C219   1.281       .  A
O206       Al216   1.985       .  S
Al207       O220   1.849       .  S
Al207       O217   1.874       .  S
Al207       O212   1.789       .  S
O208        C215   1.263       .  A
O208       Al216   1.914       .  S
O209        C218   1.272       .  A
O209       Al216   1.968       .  S
O210       Al216   1.970       .  S
O211        C218   1.254       .  A
O212       Al216   1.778       .  S
O213        C214   1.261       .  A
C214        C501   1.498       .  S
C215        C517   1.499       .  S
C218        C594   1.495       .  S
C219        O220   1.250       .  A
C219        C530   1.509       .  S
O221        C236   1.266       .  A
O221       Al229   1.900       .  S
C222        O232   1.270       .  A
C222        O223   1.262       .  A
C222        C789   1.528       .  S
O223       Al225   1.912       .  S
O224        C226   1.256       .  A
O224       Al225   1.889       .  S
Al225       O233   1.876       .  S
Al225       O235   1.898       .  S
Al225       O234   1.777       .  S
C226        O239   1.242       .  A
C226        C933   1.469       .  S
O227        C237   1.259       .  A
O227       Al229   1.876       .  S
O228        C241   1.280       .  A
O228       Al238   1.980       .  S
Al229       O242   1.845       .  S
Al229       O239   1.849       .  S
Al229       O234   1.783       .  S
O230        C237   1.268       .  A
O230       Al238   1.919       .  S
O231        C240   1.272       .  A
O231       Al238   1.969       .  S
O232       Al238   1.957       .  S
O233        C240   1.255       .  A
O234       Al238   1.772       .  S
O235        C236   1.266       .  A
C236        C466   1.483       .  S
C237        C453   1.482       .  S
C240        C482   1.507       .  S
C241        O242   1.249       .  A
C241        C581   1.492       .  S
O243        C258   1.261       .  A
O243       Al251   1.888       .  S
C244        O254   1.270       .  A
C244        O245   1.266       .  A
C244        C690   1.530       .  S
O245       Al247   1.928       .  S
O246        C248   1.247       .  A
O246       Al247   1.867       .  S
Al247       O255   1.867       .  S
Al247       O257   1.920       .  S
Al247       O256   1.776       .  S
C248        O261   1.254       .  A
C248        C818   1.470       .  S
O249        C259   1.267       .  A
O249       Al251   1.897       .  S
O250        C263   1.282       .  A
O250       Al260   1.981       .  S
Al251       O264   1.872       .  S
Al251       O261   1.890       .  S
Al251       O256   1.786       .  S
O252        C259   1.265       .  A
O252       Al260   1.919       .  S
O253        C262   1.271       .  A
O253       Al260   1.976       .  S
O254       Al260   1.951       .  S
O255        C262   1.252       .  A
O256       Al260   1.771       .  S
O257        C258   1.270       .  A
C258        C418   1.488       .  S
C259        C434   1.485       .  S
C262        C485   1.508       .  S
C263        O264   1.255       .  A
C263        C533   1.513       .  S
O265        C280   1.255       .  A
O265       Al273   1.861       .  S
C266        O276   1.254       .  A
C266        O267   1.282       .  A
C266       C1093   1.525       .  S
O267       Al269   2.011       .  S
O268        C270   1.258       .  A
O268       Al269   1.887       .  S
Al269       O277   1.939       .  S
Al269       O279   2.004       .  S
Al269       O278   1.783       .  S
C270        O283   1.255       .  A
C270        C562   1.469       .  S
O271        C281   1.258       .  A
O271       Al273   1.883       .  S
O272        C285   1.261       .  A
O272      Al1402   1.898       .  S
Al273       O283   1.900       .  S
Al273      O1406   1.896       .  S
Al273       O278   1.778       .  S
O274        C281   1.258       .  A
O274       Al282   1.864       .  S
O275        C284   1.255       .  A
O275       Al282   1.879       .  S
O276       Al282   1.861       .  S
O277        C284   1.265       .  A
O278       Al282   1.780       .  S
O279        C280   1.281       .  A
C280        C386   1.515       .  S
C281        C661   1.440   1_565  S
Al282      O1392   1.905   1_455  S
C284        C405   1.485       .  S
C285        O286   1.259       .  A
C285        C546   1.461       .  S
O286      Al1393   1.903       .  S
O287        C302   1.252       .  A
O287       Al295   1.853       .  S
C288        O298   1.257       .  A
C288        O289   1.280       .  A
C288        C949   1.522       .  S
O289       Al291   1.999       .  S
O290        C292   1.257       .  A
O290       Al291   1.890       .  S
Al291       O299   1.935       .  S
Al291       O301   1.988       .  S
Al291       O300   1.781       .  S
C292        O305   1.259       .  A
C292        C498   1.478       .  S
O293        C303   1.253       .  A
O293       Al295   1.875       .  S
O294        C307   1.263   1_655  A
O294      Al1424   1.910       .  S
Al295       O305   1.914       .  S
Al295      O1428   1.912       .  S
Al295       O300   1.785       .  S
O296        C303   1.255       .  A
O296       Al304   1.861       .  S
O297        C306   1.255       .  A
O297       Al304   1.885       .  S
O298       Al304   1.875       .  S
O299        C306   1.264       .  A
O300       Al304   1.787       .  S
O301        C302   1.278       .  A
C302        C373   1.485       .  S
C303        C613   1.431       .  S
Al304      O1414   1.913       .  S
C306        C402   1.482       .  S
C307        O308   1.265   1_455  A
C307        C514   1.485       .  S
O308      Al1415   1.915       .  S
O309        C324   1.252       .  A
O309       Al317   1.866       .  S
C310        O320   1.259       .  A
C310        O311   1.267       .  A
C310        C914   1.522       .  S
O311       Al313   1.950       .  S
O312        C314   1.267       .  A
O312       Al313   1.906       .  S
Al313       O321   1.972       .  S
Al313       O323   1.971       .  S
Al313       O322   1.772       .  S
C314        O327   1.264       .  A
C314        C469   1.474       .  S
O315        C325   1.252       .  A
O315       Al317   1.881       .  S
O316        C329   1.266       .  A
O316      Al1446   1.905       .  S
Al317       O327   1.890       .  S
Al317      O1450   1.899       .  S
Al317       O322   1.783       .  S
O318        C325   1.254       .  A
O318       Al326   1.887       .  S
O319        C328   1.254       .  A
O319       Al326   1.861       .  S
O320       Al326   1.908       .  S
O321        C328   1.273       .  A
O322       Al326   1.778       .  S
O323        C324   1.278       .  A
C324        C389   1.497       .  S
C325        C773   1.462       .  S
Al326      O1436   1.912   1_455  S
C328        C354   1.497       .  S
C329        O330   1.264       .  A
C329        C450   1.486       .  S
O330      Al1437   1.895       .  S
O331        C346   1.258       .  A
O331       Al339   1.860       .  S
C332        O342   1.251       .  A
C332        O333   1.280       .  A
C332        C805   1.517       .  S
O333       Al335   1.997       .  S
O334        C336   1.256       .  A
O334       Al335   1.896       .  S
Al335       O343   1.932       .  S
Al335       O345   1.993       .  S
Al335       O344   1.784       .  S
C336        O349   1.252       .  A
C336        C421   1.471       .  S
O337        C347   1.257       .  A
O337       Al339   1.884       .  S
O338        C351   1.257   1_655  A
O338      Al1468   1.887       .  S
Al339       O349   1.891       .  S
Al339      O1472   1.899       .  S
Al339       O344   1.786       .  S
O340        C347   1.257       .  A
O340       Al348   1.863       .  S
O341        C350   1.254       .  A
O341       Al348   1.878       .  S
O342       Al348   1.846       .  S
O343        C350   1.263       .  A
O344       Al348   1.787       .  S
O345        C346   1.281       .  A
C346        C370   1.514       .  S
C347        C706   1.446       .  S
Al348      O1458   1.885       .  S
C350        C357   1.481       .  S
C351        O352   1.260   1_455  A
C351        C437   1.465       .  S
O352      Al1459   1.905       .  S
C353        C354   1.403       .  A
C353        C358   1.412       .  A
C353        H360   1.084       .  S
C354       C1475   1.426   1_455  A
C355        C356   1.409       .  A
C355       C1474   1.426       .  A
C355        C362   1.517       .  S
C356        C357   1.398       .  A
C356        H361   1.084       .  S
C357       C1478   1.420       .  A
C358       C1477   1.422   1_455  A
C358        C359   1.515       .  S
C359        F363   1.384       .  S
C359        F364   1.382       .  S
C359        F365   1.383       .  S
C362        F366   1.383       .  S
C362        F367   1.384       .  S
C362        F368   1.385       .  S
C369        C370   1.418       .  A
C369        C374   1.409       .  A
C369        H376   1.082       .  S
C370        C371   1.424       .  A
C371        C372   1.419       .  A
C371       C1498   1.517       .  S
C372        C373   1.408       .  A
C372        H377   1.083       .  S
C373        C374   1.410       .  A
C374        C375   1.519       .  S
C375        F379   1.384       .  S
C375        F380   1.383       .  S
C375        F381   1.383       .  S
C378       C1491   1.514       .  S
C378        F382   1.378       .  S
C378        F383   1.383       .  S
C378        F384   1.385       .  S
C385        C386   1.423   1_545  A
C385        C390   1.413       .  A
C385        H392   1.080       .  S
C386        C387   1.419       .  A
C387        C388   1.417       .  A
C387        C394   1.519       .  S
C388        C389   1.416   1_565  A
C388        H393   1.083       .  S
C389        C390   1.406       .  A
C390        C391   1.517       .  S
C391        F397   1.383       .  S
C391       F1515   1.384       .  S
C391       F1516   1.383       .  S
C394        F398   1.383       .  S
C394        F399   1.383       .  S
C394        F400   1.385       .  S
F395       C1511   1.384       .  S
F396       C1511   1.383       .  S
C401        C406   1.413       .  A
C401       C1522   1.408   1_455  A
C401        H408   1.081       .  S
C402        C403   1.412       .  A
C402       C1521   1.407       .  A
C403        C404   1.412       .  A
C403        C410   1.517       .  S
C404       C1525   1.410       .  A
C404        H409   1.081       .  S
C405        C406   1.413       .  A
C405       C1524   1.409   1_455  A
C406        C407   1.515       .  S
C407        F411   1.385       .  S
C407        F412   1.383       .  S
C407        F413   1.383       .  S
C410        F414   1.383       .  S
C410        F415   1.383       .  S
C410        F416   1.385       .  S
C417        C418   1.408       .  A
C417        C422   1.400       .  A
C417        H424   1.082       .  S
C418        C419   1.425       .  A
C419        C420   1.407       .  A
C419        C426   1.522       .  S
C420        C421   1.401       .  A
C420        H425   1.082       .  S
C421        C422   1.413       .  A
C422        C423   1.520       .  S
C423        F427   1.385       .  S
C423        F428   1.382       .  S
C423        F429   1.383       .  S
C426        F430   1.384       .  S
C426        F431   1.382       .  S
C426        F432   1.385       .  S
C433        C434   1.406       .  A
C433        C438   1.406       .  A
C433        H440   1.083       .  S
C434        C435   1.428       .  A
C435        C436   1.400       .  A
C435        C442   1.522       .  S
C436        C437   1.394       .  A
C436        H441   1.084       .  S
C437        C438   1.414       .  A
C438        C439   1.518       .  S
C439        F443   1.385       .  S
C439        F444   1.382       .  S
C439        F445   1.381       .  S
C442        F446   1.380       .  S
C442        F447   1.382       .  S
C442        F448   1.385       .  S
C449        C450   1.410       .  A
C449        C454   1.401       .  A
C449        H456   1.084       .  S
C450        C451   1.420   1_545  A
C451        C452   1.403       .  A
C451        C458   1.522       .  S
C452        C453   1.407       .  A
C452        H457   1.085       .  S
C453        C454   1.419   1_565  A
C454        C455   1.524       .  S
C455        F459   1.383       .  S
C455        F460   1.384       .  S
C455        F461   1.383       .  S
C458        F462   1.383       .  S
C458        F463   1.383   1_565  S
C458        F464   1.385       .  S
C465        C466   1.410       .  A
C465        C470   1.398       .  A
C465        H472   1.082       .  S
C466        C467   1.417   1_565  A
C467        C468   1.402       .  A
C467        C474   1.515       .  S
C468        C469   1.405       .  A
C468        H473   1.083       .  S
C469        C470   1.412   1_545  A
C470        C471   1.516       .  S
C471        F475   1.383       .  S
C471        F476   1.379       .  S
C471        F477   1.384   1_565  S
C474        F478   1.384   1_545  S
C474        F479   1.381       .  S
C474        F480   1.385       .  S
C481        C482   1.413       .  A
C481        C486   1.417       .  A
C481        H488   1.083       .  S
C482        C483   1.419       .  A
C483        C484   1.415       .  A
C483        C490   1.519       .  S
C484        C485   1.413       .  A
C484        H489   1.083       .  S
C485        C486   1.419       .  A
C486        C487   1.518       .  S
C487        F491   1.385       .  S
C487        F492   1.383       .  S
C487        F493   1.383       .  S
C490        F494   1.384       .  S
C490        F495   1.383       .  S
C490        F496   1.385       .  S
C497        C498   1.399       .  A
C497        C502   1.409       .  A
C497        H504   1.083       .  S
C498        C499   1.414       .  A
C499        C500   1.404       .  A
C499        C506   1.519       .  S
C500        C501   1.409       .  A
C500        H505   1.082       .  S
C501        C502   1.431       .  A
C502        C503   1.523       .  S
C503        F507   1.385       .  S
C503        F508   1.380       .  S
C503        F509   1.380       .  S
C506        F510   1.382       .  S
C506        F511   1.382       .  S
C506        F512   1.384       .  S
C513        C514   1.397       .  A
C513        C518   1.402       .  A
C513        H520   1.084       .  S
C514        C515   1.419       .  A
C515        C516   1.414       .  A
C515        C522   1.517       .  S
C516        C517   1.409       .  A
C516        H521   1.082       .  S
C517        C518   1.431       .  A
C518        C519   1.523       .  S
C519        F523   1.385       .  S
C519        F524   1.378       .  S
C519        F525   1.382       .  S
C522        F526   1.383       .  S
C522        F527   1.382       .  S
C522        F528   1.385       .  S
C529        C530   1.423       .  A
C529        C534   1.414       .  A
C529        H536   1.082       .  S
C530        C531   1.408       .  A
C531        C532   1.415       .  A
C531        C538   1.517       .  S
C532        C533   1.425       .  A
C532        H537   1.081       .  S
C533        C534   1.412       .  A
C534        C535   1.518       .  S
C535        F539   1.385       .  S
C535        F540   1.383       .  S
C535        F541   1.383       .  S
C538        F542   1.383       .  S
C538        F543   1.383       .  S
C538        F544   1.384       .  S
C545        C546   1.402       .  A
C545        C550   1.405       .  A
C545        H552   1.084       .  S
C546        C547   1.410       .  A
C547        C548   1.400   1_565  A
C547        C554   1.516       .  S
C548        C549   1.404       .  A
C548        H553   1.084       .  S
C549        C550   1.416   1_545  A
C550        C551   1.518       .  S
C551        F555   1.385       .  S
C551        F556   1.384   1_565  S
C551        F557   1.381       .  S
C554        F558   1.380   1_565  S
C554        F559   1.384       .  S
C554        F560   1.385   1_565  S
C561        C562   1.402       .  A
C561        C566   1.408       .  A
C561        H568   1.083       .  S
C562        C563   1.411   1_565  A
C563        C564   1.398       .  A
C563        C570   1.521       .  S
C564        C565   1.410       .  A
C564        H569   1.081       .  S
C565        C566   1.424   1_545  A
C566        C567   1.521       .  S
C567        F571   1.385       .  S
C567        F572   1.383       .  S
C567        F573   1.383       .  S
C570        F574   1.382       .  S
C570        F575   1.383       .  S
C570        F576   1.383       .  S
C577        C578   1.417   1_565  A
C577        C582   1.411       .  A
C577        H584   1.083       .  S
C578        C579   1.405       .  A
C579        C580   1.409       .  A
C579        C586   1.519       .  S
C580        C581   1.418   1_545  A
C580        H585   1.078       .  S
C581        C582   1.409       .  A
C582        C583   1.515       .  S
C583        F587   1.385       .  S
C583        F588   1.383       .  S
C583        F589   1.383       .  S
C586        F590   1.383       .  S
C586        F591   1.383       .  S
C586        F592   1.383       .  S
C593        C594   1.400       .  A
C593        C598   1.413       .  A
C593        H600   1.084       .  S
C594        C595   1.423       .  A
C595        C596   1.413       .  A
C595        C602   1.515       .  S
C596        C597   1.403       .  A
C596        H601   1.084       .  S
C597        C598   1.432       .  A
C598        C599   1.519       .  S
C599        F603   1.385       .  S
C599        F604   1.384       .  S
C599        F605   1.383       .  S
C602        F606   1.383       .  S
C602        F607   1.380       .  S
C602        F608   1.383       .  S
C609        C614   1.390       .  A
C609       C1730   1.406       .  A
C609        H616   1.081       .  S
C610        C611   1.406       .  A
C610       C1729   1.405   1_455  A
C611        C612   1.397   1_455  A
C611        C618   1.519       .  S
C612       C1733   1.405       .  A
C612        H617   1.084       .  S
C613        C614   1.401       .  A
C613       C1732   1.405       .  A
C614        C615   1.519       .  S
C615        F619   1.383       .  S
C615        F620   1.383       .  S
C615        F621   1.383       .  S
C618        F622   1.383       .  S
C618        F623   1.376       .  S
C618        F624   1.383       .  S
C625        C626   1.411       .  A
C625        C630   1.426       .  A
C625        H632   1.083       .  S
C626        C627   1.434       .  A
C627        C628   1.417       .  A
C627        C634   1.517       .  S
C628        C629   1.402       .  A
C628        H633   1.083       .  S
C629        C630   1.430       .  A
C630        C631   1.521       .  S
C631        F635   1.378       .  S
C631        F636   1.384       .  S
C631        F637   1.385       .  S
C634        F638   1.384       .  S
C634        F639   1.375       .  S
C634        F640   1.385       .  S
C641        C646   1.414       .  A
C641       C1762   1.411       .  A
C641        H648   1.082       .  S
C642        C643   1.418       .  A
C642       C1761   1.412   1_455  A
C643        C644   1.414       .  A
C643        C650   1.519       .  S
C644       C1765   1.414   1_455  A
C644        H649   1.083       .  S
C645        C646   1.418       .  A
C645       C1764   1.413       .  A
C646        C647   1.518       .  S
C647        F651   1.384       .  S
C647        F652   1.384       .  S
C647        F653   1.383       .  S
C650        F654   1.384       .  S
C650        F655   1.383       .  S
C650        F656   1.385       .  S
C657        C662   1.391       .  A
C657       C1778   1.409   1_465  A
C657        H664   1.083       .  S
C658        C659   1.419       .  A
C658       C1777   1.409   1_545  A
C659        C660   1.399       .  A
C659        C666   1.515       .  S
C660       C1781   1.396       .  A
C660        H665   1.085       .  S
C661        C662   1.403   1_545  A
C661       C1780   1.395       .  A
C662        C663   1.515       .  S
C663        F667   1.380       .  S
C663        F668   1.383       .  S
C663        F669   1.384       .  S
C666        F670   1.381       .  S
C666        F671   1.380       .  S
C666        F672   1.385       .  S
C673        C674   1.415       .  A
C673        C678   1.417       .  A
C673        H680   1.082       .  S
C674        C675   1.423       .  A
C675        C676   1.421       .  A
C675        C682   1.518       .  S
C676        C677   1.413       .  A
C676        H681   1.079       .  S
C677        C678   1.423       .  A
C678        C679   1.520       .  S
C679        F683   1.385       .  S
C679        F684   1.382       .  S
C679        F685   1.384       .  S
C682        F686   1.382       .  S
C682        F687   1.384       .  S
C682        F688   1.384       .  S
C689        C690   1.415       .  A
C689        C694   1.423   1_556  A
C689        H696   1.078       .  S
C690        C691   1.424       .  A
C691        C692   1.424       .  A
C691        C698   1.518       .  S
C692        C693   1.415   1_556  A
C692        H697   1.079   1_556  S
C693        C694   1.424       .  A
C694        C695   1.519       .  S
C695        F699   1.384       .  S
C695        F700   1.383       .  S
C695        F701   1.384       .  S
C698        F702   1.383       .  S
C698        F703   1.383       .  S
C698        F704   1.384       .  S
C705        C706   1.398       .  A
C705        C710   1.401       .  A
C705        H712   1.084       .  S
C706        C707   1.406   1_556  A
C707       C1828   1.390       .  A
C707       C1834   1.515       .  S
C708        C709   1.410   1_655  A
C708       C1827   1.390       .  A
C708        H713   1.084       .  S
C709       C1830   1.419   1_454  A
C710       C1829   1.421   1_556  A
C710        C711   1.516       .  S
C711        F715   1.385       .  S
C711        F717   1.381       .  S
C711       F1836   1.384       .  S
C714       C1827   1.515       .  S
C714        F718   1.382       .  S
C714        F720   1.381       .  S
C714       F1839   1.384       .  S
F716       C1831   1.384       .  S
F719       C1834   1.384       .  S
C721        C722   1.422       .  A
C721        C726   1.413       .  A
C721        H728   1.081       .  S
C722        C723   1.413       .  A
C723        C724   1.414       .  A
C723        C730   1.519       .  S
C724        C725   1.423       .  A
C724        H729   1.081       .  S
C725        C726   1.413       .  A
C726        C727   1.519       .  S
C727        F731   1.385       .  S
C727        F733   1.383       .  S
C727       F1852   1.384       .  S
C730        F734   1.384       .  S
C730        F735   1.383       .  S
C730        F736   1.384       .  S
F732       C1847   1.382       .  S
C737        C738   1.419   1_565  A
C737        C742   1.414       .  A
C737        H744   1.080       .  S
C738        C739   1.413       .  A
C739        C740   1.412       .  A
C739        C746   1.518       .  S
C740        C741   1.419   1_545  A
C740        H745   1.083       .  S
C741        C742   1.410       .  A
C742       C1863   1.516       .  S
C743       C1862   1.517       .  S
C743        F747   1.385       .  S
C743        F748   1.383       .  S
C743        F749   1.383       .  S
C746        F750   1.383       .  S
C746        F751   1.383       .  S
C746        F752   1.385       .  S
C753        C754   1.405       .  A
C753        C758   1.414       .  A
C753        H760   1.084       .  S
C754       C1875   1.428       .  A
C755        C756   1.412       .  A
C755       C1874   1.428   1_455  A
C755        C762   1.516       .  S
C756        C757   1.400       .  A
C756        H761   1.083       .  S
C757       C1878   1.423   1_455  A
C758       C1877   1.423       .  A
C758        C759   1.516       .  S
C759        F763   1.385       .  S
C759        F764   1.384       .  S
C759        F765   1.382       .  S
C762        F766   1.382       .  S
C762        F767   1.382       .  S
C762        F768   1.385       .  S
C769        C774   1.392   1_655  A
C769       C1890   1.403   1_556  A
C769        H776   1.085       .  S
C770        C771   1.410   1_565  A
C770       C1889   1.403   1_554  A
C771        C772   1.394   1_554  A
C771        C778   1.516       .  S
C772       C1893   1.404       .  A
C772        H777   1.084       .  S
C773        C774   1.415   1_545  A
C773       C1892   1.405   1_455  A
C774        C775   1.517       .  S
C775        F779   1.385       .  S
C775        F780   1.377       .  S
C775        F781   1.383       .  S
C778        F782   1.382       .  S
C778        F783   1.385       .  S
C778        F784   1.384   1_554  S
C785        C786   1.417   1_556  A
C785        C790   1.424       .  A
C785        H792   1.082       .  S
C786        C787   1.423       .  A
C787        C788   1.421   1_554  A
C787        C794   1.519       .  S
C788        C789   1.417       .  A
C788        H793   1.082       .  S
C789        C790   1.424       .  A
C790        C791   1.518       .  S
C791        F795   1.385       .  S
C791        F796   1.383       .  S
C791        F797   1.384       .  S
C794        F798   1.383       .  S
C794        F799   1.384       .  S
C794        F800   1.385       .  S
C801        C802   1.419   1_556  A
C801        C806   1.418       .  A
C801        H808   1.082       .  S
C802        C803   1.418       .  A
C803        C804   1.417   1_554  A
C803        C810   1.517       .  S
C804        C805   1.418       .  A
C804        H809   1.082       .  S
C805        C806   1.416       .  A
C806        C807   1.515       .  S
C807        F811   1.384       .  S
C807        F812   1.383       .  S
C807        F813   1.380       .  S
C810        F814   1.383       .  S
C810        F815   1.380       .  S
C810        F816   1.385       .  S
C817        C818   1.409       .  A
C817        C822   1.391       .  A
C817        H824   1.084       .  S
C818        C819   1.417   1_556  A
C819        C820   1.399       .  A
C819        C826   1.516       .  S
C820        C821   1.398       .  A
C820        H825   1.084       .  S
C821        C822   1.404   1_554  A
C822        C823   1.514       .  S
C823        F827   1.381       .  S
C823        F828   1.382       .  S
C823        F829   1.385       .  S
C826        F830   1.384       .  S
C826        F831   1.380       .  S
C826        F832   1.385       .  S
C833        C834   1.409       .  A
C833        C838   1.402       .  A
C833        H840   1.083       .  S
C834        C835   1.424       .  A
C835        C836   1.408       .  A
C835        C842   1.520       .  S
C836        C837   1.400       .  A
C836        H841   1.084       .  S
C837        C838   1.411       .  A
C838        C839   1.519       .  S
C839        F843   1.385       .  S
C839        F844   1.382       .  S
C839        F845   1.384       .  S
C842        F846   1.383       .  S
C842        F847   1.383       .  S
C842        F848   1.385       .  S
C849        C850   1.407       .  A
C849        C854   1.407       .  A
C849        H856   1.082       .  S
C850        C851   1.428       .  A
C851        C852   1.402       .  A
C851        C858   1.524       .  S
C852        C853   1.397       .  A
C852        H857   1.080       .  S
C853        C854   1.415       .  A
C854        C855   1.518       .  S
C855        F859   1.384       .  S
C855        F860   1.381       .  S
C855        F861   1.381       .  S
C858        F862   1.382       .  S
C858        F863   1.383       .  S
C858        F864   1.385       .  S
C865        C866   1.404   1_565  A
C865        C870   1.405       .  A
C865        H872   1.082       .  S
C866        C867   1.429       .  A
C867        C868   1.404       .  A
C867        C874   1.524       .  S
C868        C869   1.401   1_545  A
C868        H873   1.082       .  S
C869        C870   1.424       .  A
C870        C871   1.523       .  S
C871        F875   1.385       .  S
C871        F876   1.383       .  S
C871        F877   1.383       .  S
C874        F878   1.381       .  S
C874        F879   1.379       .  S
C874        F880   1.385       .  S
C881        C882   1.404       .  A
C881        C886   1.408   1_545  A
C881        H888   1.083       .  S
C882        C883   1.413   1_545  A
C883        C884   1.405       .  A
C883        C890   1.518   1_565  S
C884        C885   1.407       .  A
C884        H889   1.083       .  S
C885        C886   1.420       .  A
C886        C887   1.520       .  S
C887        F891   1.385       .  S
C887        F892   1.381       .  S
C887        F893   1.382   1_465  S
C890        F894   1.379   1_545  S
C890        F895   1.383       .  S
C890        F896   1.379   1_545  S
C897        C898   1.402       .  A
C897        C902   1.408       .  A
C897        H904   1.084       .  S
C898        C899   1.426       .  A
C899        C900   1.412       .  A
C899        C906   1.513       .  S
C900        C901   1.400       .  A
C900        H905   1.084       .  S
C901        C902   1.419       .  A
C902        C903   1.513       .  S
C903        F907   1.384       .  S
C903        F908   1.381       .  S
C903        F909   1.384       .  S
C906        F910   1.381       .  S
C906        F911   1.385       .  S
C906        F912   1.379       .  S
C913        C914   1.416       .  A
C913        C918   1.419   1_556  A
C913        H920   1.082       .  S
C914        C915   1.422       .  A
C915        C916   1.420       .  A
C915        C922   1.518       .  S
C916        C917   1.416   1_556  A
C916        H921   1.082       .  S
C917        C918   1.421       .  A
C918        C919   1.519       .  S
C919        F923   1.384       .  S
C919        F924   1.384       .  S
C919        F925   1.382       .  S
C922        F926   1.384       .  S
C922        F927   1.383       .  S
C922        F928   1.385       .  S
C929        C930   1.399   1_556  A
C929        C934   1.397       .  A
C929        H936   1.083       .  S
C930        C931   1.417   1_545  A
C931        C932   1.390   1_554  A
C931        C938   1.518       .  S
C932        C933   1.401       .  A
C932        H937   1.084       .  S
C933        C934   1.429   1_565  A
C934        C935   1.525       .  S
C935        F939   1.385       .  S
C935        F940   1.383       .  S
C935        F941   1.384       .  S
C938        F942   1.381       .  S
C938        F943   1.383       .  S
C938        F944   1.385       .  S
C945        C946   1.419       .  A
C945        C950   1.420       .  A
C945        H952   1.082       .  S
C946        C947   1.420       .  A
C947        C948   1.422       .  A
C947        C954   1.512       .  S
C948        C949   1.417       .  A
C948        H953   1.083       .  S
C949        C950   1.419       .  A
C950        C951   1.516       .  S
C951        F955   1.384       .  S
C951        F956   1.383       .  S
C951        F957   1.380       .  S
C954        F958   1.384       .  S
C954        F959   1.379       .  S
C954        F960   1.385       .  S
C961        C962   1.396       .  A
C961        C966   1.396       .  A
C961        H968   1.085       .  S
C962        C963   1.407       .  A
C963        C964   1.395       .  A
C963        C970   1.516       .  S
C964        C965   1.407       .  A
C964        H969   1.079       .  S
C965        C966   1.428       .  A
C966        C967   1.525       .  S
C967        F971   1.384       .  S
C967        F972   1.380       .  S
C967        F973   1.384       .  S
C970        F974   1.383       .  S
C970        F975   1.381       .  S
C970        F976   1.385       .  S
C977        C978   1.405       .  A
C977        C982   1.407       .  A
C977        H984   1.083       .  S
C978        C979   1.422       .  A
C979        C980   1.402       .  A
C979        C986   1.522       .  S
C980        C981   1.405       .  A
C980        H985   1.084       .  S
C981        C982   1.423       .  A
C982        C983   1.521       .  S
C983        F987   1.385       .  S
C983        F988   1.383       .  S
C983        F989   1.382       .  S
C986        F990   1.380       .  S
C986        F991   1.377       .  S
C986        F992   1.385       .  S
C993        C994   1.404       .  A
C993        C998   1.407       .  A
C993       H1000   1.084       .  S
C994        C995   1.410       .  A
C995        C996   1.409       .  A
C995       C1002   1.515       .  S
C996        C997   1.407       .  A
C996       H1001   1.084       .  S
C997        C998   1.411       .  A
C998        C999   1.514       .  S
C999       F1003   1.384       .  S
C999       F1004   1.380       .  S
C999       F1005   1.382       .  S
C1002      F1006   1.381       .  S
C1002      F1007   1.383       .  S
C1002      F1008   1.380       .  S
C1009      C1010   1.413       .  A
C1009      C1014   1.407       .  A
C1009      H1016   1.078       .  S
C1010      C1011   1.424       .  A
C1011      C1012   1.421       .  A
C1011      C1018   1.511       .  S
C1012      C1013   1.407       .  A
C1012      H1017   1.083       .  S
C1013      C1014   1.413       .  A
C1014      C1015   1.520       .  S
C1015      F1019   1.385       .  S
C1015      F1020   1.383       .  S
C1015      F1021   1.378       .  S
C1018      F1022   1.379       .  S
C1018      F1023   1.383       .  S
C1018      F1024   1.385       .  S
C1025      C1026   1.407       .  A
C1025      C1030   1.407   1_565  A
C1025      H1032   1.081       .  S
C1026      C1027   1.414       .  A
C1027      C1028   1.401       .  A
C1027      C1034   1.518       .  S
C1028      C1029   1.403   1_565  A
C1028      H1033   1.083   1_565  S
C1029      C1030   1.412       .  A
C1030      C1031   1.518       .  S
C1031      F1035   1.382       .  S
C1031      F1036   1.383       .  S
C1031      F1037   1.382   1_545  S
C1034      F1038   1.379       .  S
C1034      F1039   1.384       .  S
C1034      F1040   1.385       .  S
C1041      C1042   1.402       .  A
C1041      C1046   1.397       .  A
C1041      H1048   1.081       .  S
C1042      C1043   1.420   1_565  A
C1043      C1044   1.407       .  A
C1043      C1050   1.520       .  S
C1044      C1045   1.407       .  A
C1044      H1049   1.083       .  S
C1045      C1046   1.423   1_545  A
C1046      C1047   1.522       .  S
C1047      F1051   1.385       .  S
C1047      F1052   1.382   1_455  S
C1047      F1053   1.382   1_455  S
C1050      F1054   1.384       .  S
C1050      F1055   1.380       .  S
C1050      F1056   1.385       .  S
C1057      C1058   1.413   1_545  A
C1057      C1062   1.409       .  A
C1057      H1064   1.080       .  S
C1058      C1059   1.415       .  A
C1059      C1060   1.411       .  A
C1059      C1066   1.517       .  S
C1060      C1061   1.411   1_565  A
C1060      H1065   1.084       .  S
C1061      C1062   1.409       .  A
C1062      C1063   1.515       .  S
C1063      F1067   1.384       .  S
C1063      F1068   1.383       .  S
C1063      F1069   1.382       .  S
C1066      F1070   1.382       .  S
C1066      F1071   1.383       .  S
C1066      F1072   1.385       .  S
C1073      C1074   1.413       .  A
C1073      C1078   1.413       .  A
C1073      H1080   1.083       .  S
C1074      C1075   1.419       .  A
C1075      C1076   1.410       .  A
C1075      C1082   1.518       .  S
C1076      C1077   1.405       .  A
C1076      H1081   1.082       .  S
C1077      C1078   1.411       .  A
C1078      C1079   1.516       .  S
C1079      F1083   1.384       .  S
C1079      F1084   1.383       .  S
C1079      F1085   1.383       .  S
C1082      F1086   1.383       .  S
C1082      F1087   1.383       .  S
C1082      F1088   1.385       .  S
C1089      C1090   1.416       .  A
C1089      C1094   1.424       .  A
C1089      H1096   1.082       .  S
C1090      C1091   1.420       .  A
C1091      C1092   1.419       .  A
C1091      C1098   1.518       .  S
C1092      C1093   1.417       .  A
C1092      H1097   1.082       .  S
C1093      C1094   1.421       .  A
C1094      C1095   1.515       .  S
C1095      F1099   1.385       .  S
C1095      F1100   1.383       .  S
C1095      F1101   1.380       .  S
C1098      F1102   1.383       .  S
C1098      F1103   1.382       .  S
C1098      F1104   1.385       .  S
C1105      C1106   1.402       .  A
C1105      C1110   1.394       .  A
C1105      H1112   1.083       .  S
C1106      C1107   1.403   1_565  A
C1107      C1108   1.387       .  A
C1107      C1114   1.512       .  S
C1108      C1109   1.404       .  A
C1108      H1113   1.084       .  S
C1109      C1110   1.420   1_545  A
C1110      C1111   1.523       .  S
C1111      F1115   1.385       .  S
C1111      F1116   1.383       .  S
C1111      F1117   1.382       .  S
C1114      F1118   1.383       .  S
C1114      F1119   1.383       .  S
C1114      F1120   1.383       .  S
O1121      C1136   1.259       .  A
O1121     Al1129   1.881       .  S
C1122      O1132   1.263       .  A
C1122      O1123   1.268       .  A
C1122      C2210   1.527       .  S
O1123     Al1125   1.954       .  S
O1124      C1126   1.262       .  A
O1124     Al1125   1.901       .  S
Al1125     O1133   1.966       .  S
Al1125     O1135   1.957       .  S
Al1125     O1134   1.771       .  S
C1126      O1139   1.259       .  A
C1126      C2162   1.482       .  S
O1127      C1137   1.259       .  A
O1127     Al1129   1.887       .  S
O1128      C1141   1.266       .  A
O1128     Al1138   1.936       .  S
Al1129     O1142   1.892       .  S
Al1129     O1139   1.893       .  S
Al1129     O1134   1.776       .  S
O1130      C1137   1.251       .  A
O1130     Al1138   1.866       .  S
O1131      C1140   1.260       .  A
O1131     Al1138   1.886       .  S
O1132     Al1138   1.927       .  S
O1133      C1140   1.273       .  A
O1134     Al1138   1.780       .  S
O1135      C1136   1.279       .  A
C1136      C2178   1.498       .  S
C1137      C2226   1.452       .  S
C1140      C2194   1.500       .  S
C1141      O1142   1.261       .  A
C1141      C2146   1.487       .  S
O1143      C1158   1.258       .  A
O1143     Al1151   1.845       .  S
C1144      O1154   1.256       .  A
C1144      O1145   1.281       .  A
C1144      C2066   1.530       .  S
O1145     Al1147   2.001       .  S
O1146      C1148   1.253       .  A
O1146     Al1147   1.900       .  S
Al1147     O1155   1.935       .  S
Al1147     O1157   2.019       .  S
Al1147     O1156   1.778       .  S
C1148      O1161   1.258       .  A
C1148      C2098   1.486       .  S
O1149      C1159   1.261       .  A
O1149     Al1151   1.891       .  S
O1150      C1163   1.260       .  A
O1150     Al1160   1.907       .  S
Al1151     O1164   1.926       .  S
Al1151     O1161   1.912       .  S
Al1151     O1156   1.782       .  S
O1152      C1159   1.264       .  A
O1152     Al1160   1.871       .  S
O1153      C1162   1.255       .  A
O1153     Al1160   1.881       .  S
O1154     Al1160   1.870       .  S
O1155      C1162   1.263       .  A
O1156     Al1160   1.777       .  S
O1157      C1158   1.287       .  A
C1158      C2130   1.510       .  S
C1159      C2082   1.450       .  S
C1162      C2197   1.488       .  S
C1163      O1164   1.261       .  A
C1163      C2117   1.474       .  S
O1165      C1180   1.254       .  A
O1165     Al1173   1.873       .  S
C1166      O1176   1.260       .  A
C1166      O1167   1.268       .  A
C1166      C2037   1.524       .  S
O1167     Al1169   1.957       .  S
O1168      C1170   1.265       .  A
O1168     Al1169   1.921       .  S
Al1169     O1177   1.966       .  S
Al1169     O1179   1.961       .  S
Al1169     O1178   1.771       .  S
C1170      O1183   1.262       .  A
C1170      C2002   1.474       .  S
O1171      C1181   1.253       .  A
O1171     Al1173   1.873       .  S
O1172      C1185   1.262       .  A
O1172     Al1182   1.913       .  S
Al1173     O1186   1.899       .  S
Al1173     O1183   1.892       .  S
Al1173     O1178   1.776       .  S
O1174      C1181   1.258       .  A
O1174     Al1182   1.892       .  S
O1175      C1184   1.257       .  A
O1175     Al1182   1.877       .  S
O1176     Al1182   1.912       .  S
O1177      C1184   1.274       .  A
O1178     Al1182   1.782       .  S
O1179      C1180   1.276       .  A
C1180      C2181   1.491       .  S
C1181      C2050   1.469       .  S
C1184      C2018   1.497       .  S
C1185      O1186   1.267       .  A
C1185      C1986   1.491       .  S
O1187      C1202   1.255       .  A
O1187     Al1195   1.852       .  S
C1188      O1198   1.253       .  A
C1188      O1189   1.278       .  A
C1188      C1922   1.516       .  S
O1189     Al1191   1.991       .  S
O1190      C1192   1.257       .  A
O1190     Al1191   1.897       .  S
Al1191     O1199   1.942       .  S
Al1191     O1201   1.985       .  S
Al1191     O1200   1.791       .  S
C1192      O1205   1.253       .  A
C1192      C1957   1.470       .  S
O1193      C1203   1.255       .  A
O1193     Al1195   1.878       .  S
O1194      C1207   1.259       .  A
O1194     Al1204   1.897       .  S
Al1195     O1208   1.902       .  S
Al1195     O1205   1.894       .  S
Al1195     O1200   1.791       .  S
O1196      C1203   1.255       .  A
O1196     Al1204   1.862       .  S
O1197      C1206   1.254       .  A
O1197     Al1204   1.879       .  S
O1198     Al1204   1.852       .  S
O1199      C1206   1.265       .  A
O1200     Al1204   1.789       .  S
O1201      C1202   1.278       .  A
C1202      C2133   1.486       .  S
C1203      C1941   1.440       .  S
C1206      C2021   1.485       .  S
C1207      O1208   1.260       .  A
C1207      C1973   1.471       .  S
O1209      C1224   1.262       .  A
C1210      O1220   1.268       .  A
C1210      O1211   1.262       .  A
C1210      C1906   1.527       .  S
O1211     Al1213   1.920       .  S
O1212      C1214   1.252       .  A
O1212     Al1213   1.879       .  S
Al1213     O1221   1.874       .  S
Al1213     O1222   1.776       .  S
C1214      O1227   1.255       .  A
C1214      C1890   1.460       .  S
O1215      C1225   1.265       .  A
O1215     Al1217   1.893       .  S
O1216      C1229   1.280       .  A
O1216     Al1226   1.974       .  S
Al1217     O1230   1.866       .  S
Al1217     O1227   1.887       .  S
Al1217     O1222   1.778       .  S
O1218      C1225   1.263       .  A
O1218     Al1226   1.916       .  S
O1219      C1228   1.274       .  A
O1219     Al1226   1.975       .  S
O1220     Al1226   1.954       .  S
O1221      C1228   1.255       .  A
O1222     Al1226   1.772       .  S
O1223      C1224   1.269       .  A
C1224      C2005   1.483       .  S
C1225      C1989   1.485       .  S
C1228      C1874   1.503       .  S
C1229      O1230   1.255       .  A
C1229      C1861   1.505       .  S
O1231      C1246   1.262   1_455  A
C1232      O1242   1.269       .  A
C1232      O1233   1.267       .  A
C1232      C1813   1.529       .  S
O1233     Al1235   1.933       .  S
O1234      C1236   1.247       .  A
O1234     Al1235   1.866       .  S
Al1235     O1243   1.871       .  S
Al1235     O1244   1.779       .  S
C1236      O1249   1.256       .  A
C1236      C1829   1.475       .  S
O1237      C1247   1.266       .  A
O1237     Al1239   1.899       .  S
O1238      C1251   1.281       .  A
O1238     Al1248   1.972       .  S
Al1239     O1252   1.877       .  S
Al1239     O1249   1.892       .  S
Al1239     O1244   1.785       .  S
O1240      C1247   1.262       .  A
O1240     Al1248   1.911       .  S
O1241      C1250   1.271       .  A
O1241     Al1248   1.968       .  S
O1242     Al1248   1.949       .  S
O1243      C1250   1.252       .  A
O1244     Al1248   1.773       .  S
O1245      C1246   1.268       .  A
C1246      C1954   1.488       .  S
C1247      C1970   1.486       .  S
C1250      C1877   1.497       .  S
C1251      O1252   1.257       .  A
C1251      C1845   1.506       .  S
O1253      C1268   1.261       .  A
C1254      O1264   1.265       .  A
C1254      O1255   1.266       .  A
C1254      C1797   1.519       .  S
O1255     Al1257   1.929       .  S
O1256      C1258   1.244       .  A
O1256     Al1257   1.863       .  S
Al1257     O1265   1.859       .  S
Al1257     O1266   1.774       .  S
C1258      O1271   1.258       .  A
C1258      C1778   1.476       .  S
O1259      C1269   1.268       .  A
O1259     Al1261   1.903       .  S
O1260      C1273   1.279       .  A
O1260     Al1270   1.963       .  S
Al1261     O1274   1.892       .  S
Al1261     O1271   1.915       .  S
Al1261     O1266   1.779       .  S
O1262      C1269   1.270       .  A
O1262     Al1270   1.925       .  S
O1263      C1272   1.272       .  A
O1263     Al1270   1.976       .  S
O1264     Al1270   1.926       .  S
O1265      C1272   1.251       .  A
O1266     Al1270   1.767       .  S
O1267      C1268   1.273       .  A
C1268      C2165   1.482       .  S
C1269      C2149   1.479       .  S
C1272      C1765   1.506       .  S
C1273      O1274   1.259       .  A
C1273      C1858   1.506       .  S
O1275      C1290   1.265   1_455  A
C1276      O1286   1.273       .  A
C1276      O1277   1.262       .  A
C1276      C1749   1.523       .  S
O1277     Al1279   1.926       .  S
O1278      C1280   1.248       .  A
O1278     Al1279   1.869       .  S
Al1279     O1287   1.875       .  S
Al1279     O1288   1.774       .  S
C1280      O1293   1.253       .  A
C1280      C1730   1.443       .  S
O1281      C1291   1.264       .  A
O1281     Al1283   1.898       .  S
O1282      C1295   1.279       .  A
O1282     Al1292   1.971       .  S
Al1283     O1296   1.877       .  S
Al1283     O1293   1.883       .  S
Al1283     O1288   1.781       .  S
O1284      C1291   1.267       .  A
O1284     Al1292   1.928       .  S
O1285      C1294   1.270       .  A
O1285     Al1292   1.960       .  S
O1286     Al1292   1.954       .  S
O1287      C1294   1.255       .  A
O1288     Al1292   1.767       .  S
O1289      C1290   1.267       .  A
C1290      C2101   1.489       .  S
C1291      C2114   1.469       .  S
C1294      C1762   1.500       .  S
C1295      O1296   1.256       .  A
C1295      C1842   1.506       .  S
O1297      C1312   1.267       .  A
O1297     Al1305   1.900       .  S
C1298      O1308   1.267       .  A
C1298      O1299   1.262       .  A
C1298      C1794   1.519       .  S
O1299     Al1301   1.907       .  S
O1300      C1302   1.251       .  A
O1300     Al1301   1.885       .  S
Al1301     O1309   1.863       .  S
Al1301     O1311   1.920       .  S
Al1301     O1310   1.772       .  S
C1302      O1315   1.244       .  A
C1302      C2229   1.455       .  S
O1303      C1313   1.264       .  A
O1303     Al1305   1.881       .  S
O1304      C1317   1.276       .  A
O1304     Al1314   1.966       .  S
Al1305     O1318   1.856       .  S
Al1305     O1315   1.855       .  S
Al1305     O1310   1.786       .  S
O1306      C1313   1.275       .  A
O1306     Al1314   1.941       .  S
O1307      C1316   1.274       .  A
O1307     Al1314   1.981       .  S
O1308     Al1314   1.939       .  S
O1309      C1316   1.250       .  A
O1310     Al1314   1.770       .  S
O1311      C1312   1.272       .  A
C1312      C1685   1.488       .  S
C1313      C1669   1.472       .  S
C1316      C1717   1.512       .  S
C1317      O1318   1.247       .  A
C1317      C1698   1.483       .  S
O1319      C1334   1.267       .  A
O1319     Al1327   1.905       .  S
C1320      O1330   1.273       .  A
C1320      O1321   1.261       .  A
C1320      C1746   1.530       .  S
O1321     Al1323   1.923       .  S
O1322      C1324   1.252       .  A
O1322     Al1323   1.874       .  S
Al1323     O1331   1.875       .  S
Al1323     O1333   1.920       .  S
Al1323     O1332   1.783       .  S
C1324      O1337   1.249       .  A
C1324      C2085   1.477       .  S
O1325      C1335   1.269       .  A
O1325     Al1327   1.915       .  S
O1326      C1339   1.281       .  A
O1326     Al1336   1.983       .  S
Al1327     O1340   1.853       .  S
Al1327     O1337   1.879       .  S
Al1327     O1332   1.789       .  S
O1328      C1335   1.264       .  A
O1328     Al1336   1.920       .  S
O1329      C1338   1.273       .  A
O1329     Al1336   1.971       .  S
O1330     Al1336   1.966       .  S
O1331      C1338   1.254       .  A
O1332     Al1336   1.776       .  S
O1333      C1334   1.262       .  A
C1334      C1621   1.499       .  S
C1335      C1637   1.501       .  S
C1338      C1714   1.498       .  S
C1339      O1340   1.251       .  A
C1339      C1650   1.508       .  S
O1341      C1356   1.266       .  A
O1341     Al1349   1.903       .  S
C1342      O1352   1.270       .  A
C1342      O1343   1.261       .  A
C1342      C1909   1.527       .  S
O1343     Al1345   1.908       .  S
O1344      C1346   1.256       .  A
O1344     Al1345   1.890       .  S
Al1345     O1353   1.878       .  S
Al1345     O1355   1.895       .  S
Al1345     O1354   1.779       .  S
C1346      O1359   1.243       .  A
C1346      C2053   1.474       .  S
O1347      C1357   1.262       .  A
O1347     Al1349   1.883       .  S
O1348      C1361   1.279       .  A
O1348     Al1358   1.977       .  S
Al1349     O1362   1.850       .  S
Al1349     O1359   1.862       .  S
Al1349     O1354   1.786       .  S
O1350      C1357   1.267       .  A
O1350     Al1358   1.914       .  S
O1351      C1360   1.270       .  A
O1351     Al1358   1.956       .  S
O1352     Al1358   1.957       .  S
O1353      C1360   1.255       .  A
O1354     Al1358   1.774       .  S
O1355      C1356   1.265       .  A
C1356      C1586   1.486       .  S
C1357      C1573   1.485       .  S
C1360      C1602   1.502       .  S
C1361      O1362   1.249       .  A
C1361      C1701   1.491       .  S
O1363      C1378   1.261       .  A
O1363     Al1371   1.889       .  S
C1364      O1374   1.269       .  A
C1364      O1365   1.268       .  A
C1364      C1810   1.529       .  S
O1365     Al1367   1.934       .  S
O1366      C1368   1.248       .  A
O1366     Al1367   1.865       .  S
Al1367     O1375   1.868       .  S
Al1367     O1377   1.928       .  S
Al1367     O1376   1.776       .  S
C1368      O1381   1.253       .  A
C1368      C1938   1.462       .  S
O1369      C1379   1.266       .  A
O1369     Al1371   1.896       .  S
O1370      C1383   1.282       .  A
O1370     Al1380   1.977       .  S
Al1371     O1384   1.877       .  S
Al1371     O1381   1.881       .  S
Al1371     O1376   1.783       .  S
O1372      C1379   1.261       .  A
O1372     Al1380   1.905       .  S
O1373      C1382   1.268       .  A
O1373     Al1380   1.963       .  S
O1374     Al1380   1.942       .  S
O1375      C1382   1.253       .  A
O1376     Al1380   1.773       .  S
O1377      C1378   1.271       .  A
C1378      C1538   1.495       .  S
C1379      C1554   1.478       .  S
C1382      C1605   1.504       .  S
C1383      O1384   1.256       .  A
C1383      C1653   1.511       .  S
O1385      C1400   1.253       .  A
O1385     Al1393   1.858       .  S
C1386      O1396   1.255       .  A
C1386      O1387   1.284       .  A
C1386      C2213   1.528       .  S
O1387     Al1389   2.017       .  S
O1388      C1390   1.257       .  A
O1388     Al1389   1.882       .  S
Al1389     O1397   1.943       .  S
Al1389     O1399   2.012       .  S
Al1389     O1398   1.778       .  S
C1390      O1403   1.257       .  A
C1390      C1682   1.473       .  S
O1391      C1401   1.255       .  A
O1391     Al1393   1.876       .  S
O1392      C1405   1.261       .  A
Al1393     O1403   1.908       .  S
Al1393     O1398   1.780       .  S
O1394      C1401   1.257       .  A
O1394     Al1402   1.862       .  S
O1395      C1404   1.256       .  A
O1395     Al1402   1.885       .  S
O1396     Al1402   1.863       .  S
O1397      C1404   1.267       .  A
O1398     Al1402   1.779       .  S
O1399      C1400   1.283       .  A
C1400      C1506   1.519       .  S
C1401      C1781   1.435   1_565  S
C1404      C1525   1.487       .  S
C1405      O1406   1.257   1_655  A
C1405      C1666   1.463       .  S
O1407      C1422   1.252       .  A
O1407     Al1415   1.859       .  S
C1408      O1418   1.256       .  A
C1408      O1409   1.282       .  A
C1408      C2069   1.524       .  S
O1409     Al1411   2.004       .  S
O1410      C1412   1.256       .  A
O1410     Al1411   1.881       .  S
Al1411     O1419   1.929       .  S
Al1411     O1421   1.990       .  S
Al1411     O1420   1.781       .  S
C1412      O1425   1.262       .  A
C1412      C1618   1.477       .  S
O1413      C1423   1.255       .  A
O1413     Al1415   1.880       .  S
O1414      C1427   1.264       .  A
Al1415     O1425   1.923       .  S
Al1415     O1420   1.782       .  S
O1416      C1423   1.256       .  A
O1416     Al1424   1.864       .  S
O1417      C1426   1.256       .  A
O1417     Al1424   1.889       .  S
O1418     Al1424   1.875       .  S
O1419      C1426   1.263       .  A
O1420     Al1424   1.786       .  S
O1421      C1422   1.278       .  A
C1422      C1493   1.487       .  S
C1423      C1733   1.435       .  S
C1426      C1522   1.479       .  S
C1427      O1428   1.264       .  A
C1427      C1634   1.485       .  S
O1429      C1444   1.251       .  A
O1429     Al1437   1.864       .  S
C1430      O1440   1.259       .  A
C1430      O1431   1.268       .  A
C1430      C2034   1.525       .  S
O1431     Al1433   1.957       .  S
O1432      C1434   1.266       .  A
O1432     Al1433   1.901       .  S
Al1433     O1441   1.962       .  S
Al1433     O1443   1.981       .  S
Al1433     O1442   1.772       .  S
C1434      O1447   1.262       .  A
C1434      C1589   1.475       .  S
O1435      C1445   1.250       .  A
O1435     Al1437   1.872       .  S
O1436      C1449   1.267       .  A
Al1437     O1447   1.882       .  S
Al1437     O1442   1.782       .  S
O1438      C1445   1.254       .  A
O1438     Al1446   1.884       .  S
O1439      C1448   1.252       .  A
O1439     Al1446   1.859       .  S
O1440     Al1446   1.909       .  S
O1441      C1448   1.272       .  A
O1442     Al1446   1.780       .  S
O1443      C1444   1.279       .  A
C1444      C1509   1.502       .  S
C1445      C1893   1.460       .  S
C1448      C1474   1.491       .  S
C1449      O1450   1.265   1_655  A
C1449      C1570   1.491       .  S
O1451      C1466   1.256       .  A
O1451     Al1459   1.854       .  S
C1452      O1462   1.252       .  A
C1452      O1453   1.280       .  A
C1452      C1925   1.515       .  S
O1453     Al1455   1.998       .  S
O1454      C1456   1.258       .  A
O1454     Al1455   1.903       .  S
Al1455     O1463   1.941       .  S
Al1455     O1465   1.998       .  S
Al1455     O1464   1.787       .  S
C1456      O1469   1.255       .  A
C1456      C1541   1.483       .  S
O1457      C1467   1.256       .  A
O1457     Al1459   1.879       .  S
O1458      C1471   1.256       .  A
Al1459     O1469   1.902       .  S
Al1459     O1464   1.783       .  S
O1460      C1467   1.258       .  A
O1460     Al1468   1.872       .  S
O1461      C1470   1.255       .  A
O1461     Al1468   1.886       .  S
O1462     Al1468   1.843       .  S
O1463      C1470   1.265       .  A
O1464     Al1468   1.788       .  S
O1465      C1466   1.281       .  A
C1466      C1490   1.509       .  S
C1467      C1826   1.445       .  S
C1470      C1477   1.488       .  S
C1471      O1472   1.258       .  A
C1471      C1557   1.459       .  S
C1473      C1474   1.402       .  A
C1473      C1478   1.409       .  A
C1473      H1480   1.084       .  S
C1475      C1476   1.411       .  A
C1475      C1482   1.517       .  S
C1476      C1477   1.399       .  A
C1476      H1481   1.084       .  S
C1478      C1479   1.515       .  S
C1479      F1483   1.384       .  S
C1479      F1484   1.383       .  S
C1479      F1485   1.383       .  S
C1482      F1486   1.383       .  S
C1482      F1487   1.384       .  S
C1482      F1488   1.384       .  S
C1489      C1490   1.413       .  A
C1489      C1494   1.407       .  A
C1489      H1496   1.085       .  S
C1490      C1491   1.423       .  A
C1491      C1492   1.418       .  A
C1492      C1493   1.408       .  A
C1492      H1497   1.080       .  S
C1493      C1494   1.415       .  A
C1494      C1495   1.519       .  S
C1495      F1499   1.384       .  S
C1495      F1500   1.383       .  S
C1495      F1501   1.383   1_655  S
C1498      F1502   1.381       .  S
C1498      F1503   1.384       .  S
C1498      F1504   1.385       .  S
C1505      C1506   1.425   1_545  A
C1505      C1510   1.416       .  A
C1505      H1512   1.080       .  S
C1506      C1507   1.418       .  A
C1507      C1508   1.417       .  A
C1507      C1514   1.517       .  S
C1508      C1509   1.417   1_565  A
C1508      H1513   1.083       .  S
C1509      C1510   1.408       .  A
C1510      C1511   1.517       .  S
C1511      F1517   1.383       .  S
C1514      F1518   1.383       .  S
C1514      F1519   1.383       .  S
C1514      F1520   1.384       .  S
C1521      C1526   1.413       .  A
C1521      H1528   1.081       .  S
C1522      C1523   1.410       .  A
C1523      C1524   1.408       .  A
C1523      C1530   1.517       .  S
C1524      H1529   1.081       .  S
C1525      C1526   1.413       .  A
C1526      C1527   1.515       .  S
C1527      F1531   1.384       .  S
C1527      F1532   1.383       .  S
C1527      F1533   1.383       .  S
C1530      F1534   1.383       .  S
C1530      F1535   1.384       .  S
C1530      F1536   1.384       .  S
C1537      C1538   1.408       .  A
C1537      C1542   1.404       .  A
C1537      H1544   1.082       .  S
C1538      C1539   1.426       .  A
C1539      C1540   1.408       .  A
C1539      C1546   1.522       .  S
C1540      C1541   1.403       .  A
C1540      H1545   1.083       .  S
C1541      C1542   1.417       .  A
C1542      C1543   1.520       .  S
C1543      F1547   1.384       .  S
C1543      F1548   1.382       .  S
C1543      F1549   1.382       .  S
C1546      F1550   1.384       .  S
C1546      F1551   1.383       .  S
C1546      F1552   1.385       .  S
C1553      C1554   1.404       .  A
C1553      C1558   1.403       .  A
C1553      H1560   1.083       .  S
C1554      C1555   1.428       .  A
C1555      C1556   1.398       .  A
C1555      C1562   1.523       .  S
C1556      C1557   1.393       .  A
C1556      H1561   1.084       .  S
C1557      C1558   1.413       .  A
C1558      C1559   1.517       .  S
C1559      F1563   1.384       .  S
C1559      F1564   1.382       .  S
C1559      F1565   1.379       .  S
C1562      F1566   1.381       .  S
C1562      F1567   1.383       .  S
C1562      F1568   1.385       .  S
C1569      C1570   1.411       .  A
C1569      C1574   1.403       .  A
C1569      H1576   1.081       .  S
C1570      C1571   1.421   1_545  A
C1571      C1572   1.405       .  A
C1571      C1578   1.523       .  S
C1572      C1573   1.408       .  A
C1572      H1577   1.081       .  S
C1573      C1574   1.417   1_565  A
C1574      C1575   1.523       .  S
C1575      F1579   1.382       .  S
C1575      F1580   1.384       .  S
C1575      F1581   1.383       .  S
C1578      F1582   1.383       .  S
C1578      F1583   1.383   1_565  S
C1578      F1584   1.385       .  S
C1585      C1586   1.412       .  A
C1585      C1590   1.400       .  A
C1585      H1592   1.082       .  S
C1586      C1587   1.418   1_565  A
C1587      C1588   1.400       .  A
C1587      C1594   1.515       .  S
C1588      C1589   1.404       .  A
C1588      H1593   1.082       .  S
C1589      C1590   1.413   1_545  A
C1590      C1591   1.519       .  S
C1591      F1595   1.384       .  S
C1591      F1596   1.382       .  S
C1591      F1597   1.384   1_565  S
C1594      F1598   1.383   1_545  S
C1594      F1599   1.383       .  S
C1594      F1600   1.385       .  S
C1601      C1602   1.412       .  A
C1601      C1606   1.417       .  A
C1601      H1608   1.083       .  S
C1602      C1603   1.418       .  A
C1603      C1604   1.411       .  A
C1603      C1610   1.520       .  S
C1604      C1605   1.411       .  A
C1604      H1609   1.083       .  S
C1605      C1606   1.421       .  A
C1606      C1607   1.519       .  S
C1607      F1611   1.385       .  S
C1607      F1612   1.383       .  S
C1607      F1613   1.383       .  S
C1610      F1614   1.384       .  S
C1610      F1615   1.382       .  S
C1610      F1616   1.385       .  S
C1617      C1618   1.397       .  A
C1617      C1622   1.407       .  A
C1617      H1624   1.083       .  S
C1618      C1619   1.415       .  A
C1619      C1620   1.406       .  A
C1619      C1626   1.521       .  S
C1620      C1621   1.410       .  A
C1620      H1625   1.082       .  S
C1621      C1622   1.431       .  A
C1622      C1623   1.522       .  S
C1623      F1627   1.385       .  S
C1623      F1628   1.380       .  S
C1623      F1629   1.380       .  S
C1626      F1630   1.381       .  S
C1626      F1631   1.380       .  S
C1626      F1632   1.385       .  S
C1633      C1634   1.398       .  A
C1633      C1638   1.404       .  A
C1633      H1640   1.083       .  S
C1634      C1635   1.419       .  A
C1635      C1636   1.414       .  A
C1635      C1642   1.517       .  S
C1636      C1637   1.409       .  A
C1636      H1641   1.082       .  S
C1637      C1638   1.431       .  A
C1638      C1639   1.523       .  S
C1639      F1643   1.385       .  S
C1639      F1644   1.380       .  S
C1639      F1645   1.383       .  S
C1642      F1646   1.383       .  S
C1642      F1647   1.382       .  S
C1642      F1648   1.384       .  S
C1649      C1650   1.422       .  A
C1649      C1654   1.413       .  A
C1649      H1656   1.082       .  S
C1650      C1651   1.409       .  A
C1651      C1652   1.416       .  A
C1651      C1658   1.517       .  S
C1652      C1653   1.424       .  A
C1652      H1657   1.081       .  S
C1653      C1654   1.412       .  A
C1654      C1655   1.518       .  S
C1655      F1659   1.385       .  S
C1655      F1660   1.383       .  S
C1655      F1661   1.383       .  S
C1658      F1662   1.383       .  S
C1658      F1663   1.383       .  S
C1658      F1664   1.384       .  S
C1665      C1666   1.402       .  A
C1665      C1670   1.406       .  A
C1665      H1672   1.084       .  S
C1666      C1667   1.410       .  A
C1667      C1668   1.401   1_565  A
C1667      C1674   1.517       .  S
C1668      C1669   1.404       .  A
C1668      H1673   1.083       .  S
C1669      C1670   1.417   1_545  A
C1670      C1671   1.518       .  S
C1671      F1675   1.385       .  S
C1671      F1676   1.384   1_565  S
C1671      F1677   1.380       .  S
C1674      F1678   1.380   1_565  S
C1674      F1679   1.384       .  S
C1674      F1680   1.385       .  S
C1681      C1682   1.403       .  A
C1681      C1686   1.407       .  A
C1681      H1688   1.083       .  S
C1682      C1683   1.414   1_565  A
C1683      C1684   1.399       .  A
C1683      C1690   1.521       .  S
C1684      C1685   1.408       .  A
C1684      H1689   1.081       .  S
C1685      C1686   1.425   1_545  A
C1686      C1687   1.522       .  S
C1687      F1691   1.385       .  S
C1687      F1692   1.383       .  S
C1687      F1693   1.382       .  S
C1690      F1694   1.382       .  S
C1690      F1695   1.383       .  S
C1690      F1696   1.384       .  S
C1697      C1698   1.416   1_565  A
C1697      C1702   1.412       .  A
C1697      H1704   1.083       .  S
C1698      C1699   1.406       .  A
C1699      C1700   1.409       .  A
C1699      C1706   1.518       .  S
C1700      C1701   1.416   1_545  A
C1700      H1705   1.077       .  S
C1701      C1702   1.410       .  A
C1702      C1703   1.515       .  S
C1703      F1707   1.385       .  S
C1703      F1708   1.383       .  S
C1703      F1709   1.382       .  S
C1706      F1710   1.384       .  S
C1706      F1711   1.383       .  S
C1706      F1712   1.381       .  S
C1713      C1714   1.400       .  A
C1713      C1718   1.414       .  A
C1713      H1720   1.084       .  S
C1714      C1715   1.424       .  A
C1715      C1716   1.416       .  A
C1715      C1722   1.516       .  S
C1716      C1717   1.406       .  A
C1716      H1721   1.084       .  S
C1717      C1718   1.433       .  A
C1718      C1719   1.519       .  S
C1719      F1723   1.385       .  S
C1719      F1724   1.384       .  S
C1719      F1725   1.383       .  S
C1722      F1726   1.383       .  S
C1722      F1727   1.381       .  S
C1722      F1728   1.383       .  S
C1729      C1734   1.392       .  A
C1729      H1736   1.081       .  S
C1730      C1731   1.404       .  A
C1731      C1732   1.395       .  A
C1731      C1738   1.519       .  S
C1732      H1737   1.083       .  S
C1733      C1734   1.403       .  A
C1734      C1735   1.519       .  S
C1735      F1739   1.384       .  S
C1735      F1740   1.382       .  S
C1735      F1741   1.383       .  S
C1738      F1742   1.383       .  S
C1738      F1743   1.376       .  S
C1738      F1744   1.382       .  S
C1745      C1746   1.410       .  A
C1745      C1750   1.425       .  A
C1745      H1752   1.083       .  S
C1746      C1747   1.434       .  A
C1747      C1748   1.419       .  A
C1747      C1754   1.518       .  S
C1748      C1749   1.403       .  A
C1748      H1753   1.083       .  S
C1749      C1750   1.430       .  A
C1750      C1751   1.521       .  S
C1751      F1755   1.378       .  S
C1751      F1756   1.384       .  S
C1751      F1757   1.385       .  S
C1754      F1758   1.384       .  S
C1754      F1759   1.375       .  S
C1754      F1760   1.385       .  S
C1761      C1766   1.415       .  A
C1761      H1768   1.080       .  S
C1762      C1763   1.418       .  A
C1763      C1764   1.412       .  A
C1763      C1770   1.520       .  S
C1764      H1769   1.083       .  S
C1765      C1766   1.418       .  A
C1766      C1767   1.518       .  S
C1767      F1771   1.384       .  S
C1767      F1772   1.384       .  S
C1767      F1773   1.383       .  S
C1770      F1774   1.384       .  S
C1770      F1775   1.383       .  S
C1770      F1776   1.385       .  S
C1777      C1782   1.391       .  A
C1777      H1784   1.083       .  S
C1778      C1779   1.423       .  A
C1779      C1780   1.400   1_655  A
C1779      C1786   1.516       .  S
C1780      H1785   1.084       .  S
C1781      C1782   1.401   1_545  A
C1782      C1783   1.515       .  S
C1783      F1787   1.377       .  S
C1783      F1788   1.382       .  S
C1783      F1789   1.384       .  S
C1786      F1790   1.381       .  S
C1786      F1791   1.381       .  S
C1786      F1792   1.385       .  S
C1793      C1794   1.415       .  A
C1793      C1798   1.417       .  A
C1793      H1800   1.082       .  S
C1794      C1795   1.423       .  A
C1795      C1796   1.420       .  A
C1795      C1802   1.519       .  S
C1796      C1797   1.413       .  A
C1796      H1801   1.079       .  S
C1797      C1798   1.423       .  A
C1798      C1799   1.519       .  S
C1799      F1803   1.385       .  S
C1799      F1804   1.382       .  S
C1799      F1805   1.384       .  S
C1802      F1806   1.383       .  S
C1802      F1807   1.384       .  S
C1802      F1808   1.384       .  S
C1809      C1810   1.416       .  A
C1809      C1814   1.424   1_556  A
C1809      H1816   1.081       .  S
C1810      C1811   1.425       .  A
C1811      C1812   1.423       .  A
C1811      C1818   1.519       .  S
C1812      C1813   1.414   1_556  A
C1812      H1817   1.078       .  S
C1813      C1814   1.423       .  A
C1814      C1815   1.517       .  S
C1815      F1819   1.384       .  S
C1815      F1820   1.382       .  S
C1815      F1821   1.384       .  S
C1818      F1822   1.383       .  S
C1818      F1823   1.384       .  S
C1818      F1824   1.384       .  S
C1825      C1826   1.399       .  A
C1825      C1830   1.401       .  A
C1825      H1832   1.084       .  S
C1826      C1827   1.403   1_556  A
C1828      C1829   1.409       .  A
C1828      H1833   1.084       .  S
C1830      C1831   1.516   1_655  S
C1831      F1835   1.385       .  S
C1831      F1837   1.382       .  S
C1834      F1838   1.383       .  S
C1834      F1840   1.381       .  S
C1841      C1842   1.420       .  A
C1841      C1846   1.413       .  A
C1841      H1848   1.082       .  S
C1842      C1843   1.412       .  A
C1843      C1844   1.414       .  A
C1843      C1850   1.518       .  S
C1844      C1845   1.421       .  A
C1844      H1849   1.082       .  S
C1845      C1846   1.411       .  A
C1846      C1847   1.517       .  S
C1847      F1851   1.385       .  S
C1847      F1853   1.383       .  S
C1850      F1854   1.383       .  S
C1850      F1855   1.383       .  S
C1850      F1856   1.384       .  S
C1857      C1858   1.420   1_565  A
C1857      C1862   1.416       .  A
C1857      H1864   1.081       .  S
C1858      C1859   1.413       .  A
C1859      C1860   1.411       .  A
C1859      C1866   1.518       .  S
C1860      C1861   1.419   1_545  A
C1860      H1865   1.082       .  S
C1861      C1862   1.412       .  A
C1863      F1867   1.385       .  S
C1863      F1868   1.382       .  S
C1863      F1869   1.383       .  S
C1866      F1870   1.383       .  S
C1866      F1871   1.383       .  S
C1866      F1872   1.385       .  S
C1873      C1874   1.405       .  A
C1873      C1878   1.413       .  A
C1873      H1880   1.084       .  S
C1875      C1876   1.412       .  A
C1875      C1882   1.516       .  S
C1876      C1877   1.400       .  A
C1876      H1881   1.084       .  S
C1878      C1879   1.517       .  S
C1879      F1883   1.385       .  S
C1879      F1884   1.385       .  S
C1879      F1885   1.382       .  S
C1882      F1886   1.382       .  S
C1882      F1887   1.383       .  S
C1882      F1888   1.385       .  S
C1889      C1894   1.393       .  A
C1889      H1896   1.083       .  S
C1890      C1891   1.411   1_565  A
C1891      C1892   1.394   1_554  A
C1891      C1898   1.516       .  S
C1892      H1897   1.084       .  S
C1893      C1894   1.416   1_545  A
C1894      C1895   1.520       .  S
C1895      F1899   1.385       .  S
C1895      F1900   1.381       .  S
C1895      F1901   1.383       .  S
C1898      F1902   1.382       .  S
C1898      F1903   1.384       .  S
C1898      F1904   1.384   1_554  S
C1905      C1906   1.418   1_556  A
C1905      C1910   1.424       .  A
C1905      H1912   1.082       .  S
C1906      C1907   1.422       .  A
C1907      C1908   1.419   1_554  A
C1907      C1914   1.518       .  S
C1908      C1909   1.416       .  A
C1908      H1913   1.082       .  S
C1909      C1910   1.424       .  A
C1910      C1911   1.519       .  S
C1911      F1915   1.384       .  S
C1911      F1916   1.383       .  S
C1911      F1917   1.384       .  S
C1914      F1918   1.383       .  S
C1914      F1919   1.384       .  S
C1914      F1920   1.385       .  S
C1921      C1922   1.419   1_556  A
C1921      C1926   1.417       .  A
C1921      H1928   1.082       .  S
C1922      C1923   1.417       .  A
C1923      C1924   1.416   1_554  A
C1923      C1930   1.517       .  S
C1924      C1925   1.419       .  A
C1924      H1929   1.082       .  S
C1925      C1926   1.416       .  A
C1926      C1927   1.516       .  S
C1927      F1931   1.385       .  S
C1927      F1932   1.383       .  S
C1927      F1933   1.380       .  S
C1930      F1934   1.383       .  S
C1930      F1935   1.380       .  S
C1930      F1936   1.385       .  S
C1937      C1938   1.408       .  A
C1937      C1942   1.390       .  A
C1937      H1944   1.085       .  S
C1938      C1939   1.414   1_556  A
C1939      C1940   1.399       .  A
C1939      C1946   1.517       .  S
C1940      C1941   1.401       .  A
C1940      H1945   1.085       .  S
C1941      C1942   1.404   1_554  A
C1942      C1943   1.515       .  S
C1943      F1947   1.379       .  S
C1943      F1948   1.382       .  S
C1943      F1949   1.384       .  S
C1946      F1950   1.384       .  S
C1946      F1951   1.381       .  S
C1946      F1952   1.385       .  S
C1953      C1954   1.409       .  A
C1953      C1958   1.402       .  A
C1953      H1960   1.083       .  S
C1954      C1955   1.424       .  A
C1955      C1956   1.408       .  A
C1955      C1962   1.521       .  S
C1956      C1957   1.400       .  A
C1956      H1961   1.084       .  S
C1957      C1958   1.411       .  A
C1958      C1959   1.520       .  S
C1959      F1963   1.385       .  S
C1959      F1964   1.382       .  S
C1959      F1965   1.384       .  S
C1962      F1966   1.384       .  S
C1962      F1967   1.383       .  S
C1962      F1968   1.385       .  S
C1969      C1970   1.406       .  A
C1969      C1974   1.407       .  A
C1969      H1976   1.082       .  S
C1970      C1971   1.428       .  A
C1971      C1972   1.399       .  A
C1971      C1978   1.524       .  S
C1972      C1973   1.396       .  A
C1972      H1977   1.080       .  S
C1973      C1974   1.416       .  A
C1974      C1975   1.518       .  S
C1975      F1979   1.385       .  S
C1975      F1980   1.381       .  S
C1975      F1981   1.380       .  S
C1978      F1982   1.380       .  S
C1978      F1983   1.383       .  S
C1978      F1984   1.386       .  S
C1985      C1986   1.404   1_565  A
C1985      C1990   1.404       .  A
C1985      H1992   1.082       .  S
C1986      C1987   1.428       .  A
C1987      C1988   1.405       .  A
C1987      C1994   1.521       .  S
C1988      C1989   1.401   1_545  A
C1988      H1993   1.083       .  S
C1989      C1990   1.423       .  A
C1990      C1991   1.522       .  S
C1991      F1995   1.385       .  S
C1991      F1996   1.382       .  S
C1991      F1997   1.383       .  S
C1994      F1998   1.382       .  S
C1994      F1999   1.378       .  S
C1994      F2000   1.385       .  S
C2001      C2002   1.404       .  A
C2001      C2006   1.408   1_545  A
C2001      H2008   1.083       .  S
C2002      C2003   1.411       .  A
C2003      C2004   1.404   1_545  A
C2003      C2010   1.518       .  S
C2004      C2005   1.407       .  A
C2004      H2009   1.084       .  S
C2005      C2006   1.420       .  A
C2006      C2007   1.520       .  S
C2007      F2011   1.385       .  S
C2007      F2012   1.380       .  S
C2007      F2013   1.382   1_565  S
C2010      F2014   1.379   1_545  S
C2010      F2015   1.383       .  S
C2010      F2016   1.379       .  S
C2017      C2018   1.403       .  A
C2017      C2022   1.409       .  A
C2017      H2024   1.084       .  S
C2018      C2019   1.427       .  A
C2019      C2020   1.412       .  A
C2019      C2026   1.517       .  S
C2020      C2021   1.400       .  A
C2020      H2025   1.084       .  S
C2021      C2022   1.419       .  A
C2022      C2023   1.514       .  S
C2023      F2027   1.384       .  S
C2023      F2028   1.381       .  S
C2023      F2029   1.384       .  S
C2026      F2030   1.382       .  S
C2026      F2031   1.384       .  S
C2026      F2032   1.382       .  S
C2033      C2034   1.418       .  A
C2033      C2038   1.421   1_556  A
C2033      H2040   1.082       .  S
C2034      C2035   1.421       .  A
C2035      C2036   1.421       .  A
C2035      C2042   1.517       .  S
C2036      C2037   1.417   1_556  A
C2036      H2041   1.082       .  S
C2037      C2038   1.422       .  A
C2038      C2039   1.519       .  S
C2039      F2043   1.385       .  S
C2039      F2044   1.384       .  S
C2039      F2045   1.382       .  S
C2042      F2046   1.384       .  S
C2042      F2047   1.382       .  S
C2042      F2048   1.385       .  S
C2049      C2050   1.400   1_556  A
C2049      C2054   1.401       .  A
C2049      H2056   1.083       .  S
C2050      C2051   1.414   1_545  A
C2051      C2052   1.390   1_554  A
C2051      C2058   1.516       .  S
C2052      C2053   1.402       .  A
C2052      H2057   1.084       .  S
C2053      C2054   1.429   1_565  A
C2054      C2055   1.525       .  S
C2055      F2059   1.385       .  S
C2055      F2060   1.383       .  S
C2055      F2061   1.384       .  S
C2058      F2062   1.381       .  S
C2058      F2063   1.383       .  S
C2058      F2064   1.384       .  S
C2065      C2066   1.419       .  A
C2065      C2070   1.421       .  A
C2065      H2072   1.082       .  S
C2066      C2067   1.421       .  A
C2067      C2068   1.423       .  A
C2067      C2074   1.514       .  S
C2068      C2069   1.417       .  A
C2068      H2073   1.083       .  S
C2069      C2070   1.419       .  A
C2070      C2071   1.515       .  S
C2071      F2075   1.383       .  S
C2071      F2076   1.383       .  S
C2071      F2077   1.379       .  S
C2074      F2078   1.384       .  S
C2074      F2079   1.380       .  S
C2074      F2080   1.385       .  S
C2081      C2082   1.397       .  A
C2081      C2086   1.397       .  A
C2081      H2088   1.085       .  S
C2082      C2083   1.406       .  A
C2083      C2084   1.395       .  A
C2083      C2090   1.516       .  S
C2084      C2085   1.408       .  A
C2084      H2089   1.080       .  S
C2085      C2086   1.427       .  A
C2086      C2087   1.524       .  S
C2087      F2091   1.383       .  S
C2087      F2092   1.381       .  S
C2087      F2093   1.384       .  S
C2090      F2094   1.384       .  S
C2090      F2095   1.381       .  S
C2090      F2096   1.385       .  S
C2097      C2098   1.406       .  A
C2097      C2102   1.405       .  A
C2097      H2104   1.083       .  S
C2098      C2099   1.425       .  A
C2099      C2100   1.403       .  A
C2099      C2106   1.523       .  S
C2100      C2101   1.405       .  A
C2100      H2105   1.085       .  S
C2101      C2102   1.420       .  A
C2102      C2103   1.518       .  S
C2103      F2107   1.385       .  S
C2103      F2108   1.383       .  S
C2103      F2109   1.381       .  S
C2106      F2110   1.383       .  S
C2106      F2111   1.376       .  S
C2106      F2112   1.385       .  S
C2113      C2114   1.402       .  A
C2113      C2118   1.406       .  A
C2113      H2120   1.084       .  S
C2114      C2115   1.410       .  A
C2115      C2116   1.407       .  A
C2115      C2122   1.514       .  S
C2116      C2117   1.406       .  A
C2116      H2121   1.084       .  S
C2117      C2118   1.412       .  A
C2118      C2119   1.513       .  S
C2119      F2123   1.385       .  S
C2119      F2124   1.378       .  S
C2119      F2125   1.382       .  S
C2122      F2126   1.380       .  S
C2122      F2127   1.383       .  S
C2122      F2128   1.381       .  S
C2129      C2130   1.412       .  A
C2129      C2134   1.405       .  A
C2129      H2136   1.074       .  S
C2130      C2131   1.422       .  A
C2131      C2132   1.422       .  A
C2131      C2138   1.513       .  S
C2132      C2133   1.409       .  A
C2132      H2137   1.083       .  S
C2133      C2134   1.412       .  A
C2134      C2135   1.522       .  S
C2135      F2139   1.385       .  S
C2135      F2140   1.383       .  S
C2135      F2141   1.378       .  S
C2138      F2142   1.380       .  S
C2138      F2143   1.383       .  S
C2138      F2144   1.385       .  S
C2145      C2146   1.409       .  A
C2145      C2150   1.411       .  A
C2145      H2152   1.082       .  S
C2146      C2147   1.419       .  A
C2147      C2148   1.404   1_565  A
C2147      C2154   1.517       .  S
C2148      C2149   1.403       .  A
C2148      H2153   1.083       .  S
C2149      C2150   1.413   1_545  A
C2150      C2151   1.517   1_565  S
C2151      F2155   1.379   1_545  S
C2151      F2156   1.384       .  S
C2151      F2157   1.382   1_545  S
C2154      F2158   1.380   1_565  S
C2154      F2159   1.384       .  S
C2154      F2160   1.385       .  S
C2161      C2162   1.403       .  A
C2161      C2166   1.399       .  A
C2161      H2168   1.081       .  S
C2162      C2163   1.420   1_565  A
C2163      C2164   1.405       .  A
C2163      C2170   1.519       .  S
C2164      C2165   1.405       .  A
C2164      H2169   1.083       .  S
C2165      C2166   1.423   1_545  A
C2166      C2167   1.522       .  S
C2167      F2171   1.385       .  S
C2167      F2172   1.381       .  S
C2167      F2173   1.382       .  S
C2170      F2174   1.383       .  S
C2170      F2175   1.380       .  S
C2170      F2176   1.385       .  S
C2177      C2178   1.414   1_545  A
C2177      C2182   1.411       .  A
C2177      H2184   1.078       .  S
C2178      C2179   1.415       .  A
C2179      C2180   1.414       .  A
C2179      C2186   1.517       .  S
C2180      C2181   1.414   1_565  A
C2180      H2185   1.083       .  S
C2181      C2182   1.410       .  A
C2182      C2183   1.516       .  S
C2183      F2187   1.384       .  S
C2183      F2188   1.383       .  S
C2183      F2189   1.383       .  S
C2186      F2190   1.383       .  S
C2186      F2191   1.383       .  S
C2186      F2192   1.385       .  S
C2193      C2194   1.413       .  A
C2193      C2198   1.413       .  A
C2193      H2200   1.083       .  S
C2194      C2195   1.420       .  A
C2195      C2196   1.411       .  A
C2195      C2202   1.518       .  S
C2196      C2197   1.406       .  A
C2196      H2201   1.083       .  S
C2197      C2198   1.412       .  A
C2198      C2199   1.515       .  S
C2199      F2203   1.384       .  S
C2199      F2204   1.384       .  S
C2199      F2205   1.383       .  S
C2202      F2206   1.384       .  S
C2202      F2207   1.383       .  S
C2202      F2208   1.385       .  S
C2209      C2210   1.418       .  A
C2209      C2214   1.427       .  A
C2209      H2216   1.082       .  S
C2210      C2211   1.421       .  A
C2211      C2212   1.419       .  A
C2211      C2218   1.517       .  S
C2212      C2213   1.416       .  A
C2212      H2217   1.083       .  S
C2213      C2214   1.422       .  A
C2214      C2215   1.515       .  S
C2215      F2219   1.385       .  S
C2215      F2220   1.383       .  S
C2215      F2221   1.380       .  S
C2218      F2222   1.384       .  S
C2218      F2223   1.382       .  S
C2218      F2224   1.385       .  S
C2225      C2226   1.400       .  A
C2225      C2230   1.392       .  A
C2225      H2232   1.084       .  S
C2226      C2227   1.403   1_565  A
C2227      C2228   1.390       .  A
C2227      C2234   1.512       .  S
C2228      C2229   1.406       .  A
C2228      H2233   1.084       .  S
C2229      C2230   1.419   1_545  A
C2230      C2231   1.521       .  S
C2231      F2235   1.385       .  S
C2231      F2236   1.382       .  S
C2231      F2237   1.379       .  S
C2234      F2238   1.384       .  S
C2234      F2239   1.383       .  S
C2234      F2240   1.382       .  S
