geometry optimzed in LAMMPS
_audit_creation_date              2020-12-01 
_audit_creation_method            'lammps2cif' 
_symmetry_space_group_name_H-M    'P1' 
_symmetry_Int_Tables_number       1 
_symmetry_cell_setting            triclinic 
loop_ 
_symmetry_equiv_pos_as_xyz 
  x,y,z 
_cell_length_a                    31.84215382 
_cell_length_b                    28.363900258002722 
_cell_length_c                    68.71861783461662 
_cell_angle_alpha                 89.65171005018487 
_cell_angle_beta                  89.84371339459474 
_cell_angle_gamma                 90.00726481690172 
loop_ 
_atom_site_label 
_atom_site_type_symbol 
_atom_site_fract_x 
_atom_site_fract_y 
_atom_site_fract_z 
_atom_site_charge 
Fe1        Fe  0.97783877  0.23807139  0.44128131     1.65800
Fe2        Fe  0.95073209  0.12504126  0.44517323     1.73200
Fe3        Fe  0.94183862  0.19586496  0.48393081     1.54400
O4          O  0.00068276  0.22107870  0.49027112    -0.81900
O5          O  0.89889657  0.10727585  0.46226104    -0.80200
O6          O  0.00889700  0.26951356  0.46492581    -0.84400
O7          O  0.92537437  0.27609444  0.44699282    -0.79200
O8          O  0.96108388  0.12758022  0.49198328    -0.81000
O9          O  0.91142117  0.15164701  0.42448237    -0.83800
C10         C  0.91478473  0.29033668  0.46370432     0.97000
C11         C  0.01731015  0.25711636  0.48239298     1.04400
O12         O  0.95670026  0.18643435  0.45686235    -1.12700
O13         O  0.00314618  0.13304033  0.42714144    -0.75200
O14         O  0.03156730  0.20121103  0.43555303    -0.78700
O15         O  0.92088533  0.26545887  0.47901356    -0.79400
C16         C  0.03497389  0.15975229  0.42894532     0.95900
O17         O  0.94825186  0.21477817  0.41563622    -0.77300
O18         O  0.98928586  0.09604675  0.46547207    -0.82500
C19         C  0.87485240  0.12854316  0.47414600     0.98500
C20         C  0.98050764  0.09414212  0.48343350     1.04400
O21         O  0.88213882  0.17063405  0.47938986    -0.78200
C22         C  0.91919617  0.18469269  0.41251407     1.02700
Fe23       Fe  0.76926442  0.23696829  0.31056604     1.65800
Fe24       Fe  0.79354604  0.12232679  0.30777266     1.73200
Fe25       Fe  0.80660231  0.19274665  0.26861518     1.54400
O26         O  0.74923950  0.22097453  0.26132448    -0.81900
O27         O  0.84662439  0.10255577  0.29145023    -0.80200
O28         O  0.74022332  0.26870566  0.28654708    -0.84400
O29         O  0.82266672  0.27422126  0.30510032    -0.79200
O30         O  0.78599767  0.12530164  0.26059217    -0.81000
O31         O  0.83133193  0.14741090  0.32942313    -0.83800
C32         C  0.83727202  0.28502929  0.28849533     0.97000
C33         C  0.73297950  0.25737988  0.26894627     1.04400
O34         O  0.79003672  0.18415150  0.29564213    -1.12700
O35         O  0.73961117  0.13189974  0.32478569    -0.75200
O36         O  0.71428975  0.20188184  0.31625328    -0.78700
O37         O  0.83010488  0.26076417  0.27330345    -0.79400
C38         C  0.70913984  0.16082857  0.32323823     0.95900
O39         O  0.79689192  0.21358449  0.33654949    -0.77300
O40         O  0.75573364  0.09441043  0.28698688    -0.82500
C41         C  0.87114822  0.12288252  0.27927886     0.98500
C42         C  0.76521904  0.09270221  0.26912977     1.04400
O43         O  0.86502092  0.16525692  0.27403670    -0.78200
C44         C  0.82349786  0.18150519  0.34073337     1.02700
Fe45       Fe  0.51854923  0.76755936  0.06214491     1.65800
Fe46       Fe  0.54311616  0.88201682  0.05889823     1.73200
Fe47       Fe  0.55661620  0.81142063  0.01994718     1.54400
O48         O  0.57947295  0.74295785  0.02495774    -0.81900
O49         O  0.50678957  0.91091556  0.03758064    -0.80200
O50         O  0.57169002  0.72995104  0.05671626    -0.84400
O51         O  0.48885895  0.73682257  0.03817789    -0.79200
O52         O  0.61508977  0.83931344  0.02529696    -0.81000
O53         O  0.48853773  0.87321771  0.07548307    -0.83800
C54         C  0.48158017  0.74778708  0.02047361     0.97000
C55         C  0.58431679  0.71720205  0.04007593     1.04400
O56         O  0.53956166  0.82027696  0.04695834    -1.12700
O57         O  0.58001291  0.85670345  0.08098329    -0.75200
O58         O  0.54634834  0.79013274  0.08821088    -0.78700
O59         O  0.49923454  0.78314123  0.01245720    -0.79400
C60         C  0.57276143  0.82231769  0.09240509     0.95900
O61         O  0.46374678  0.80264803  0.06788204    -0.77300
O62         O  0.59668882  0.90097506  0.04314707    -0.82500
C63         C  0.51603165  0.91210219  0.01964233     0.98500
C64         C  0.62137449  0.88118463  0.03106608     1.04400
O65         O  0.53601204  0.87863932  0.01145022    -0.78200
C66         C  0.45836158  0.84385805  0.07443282     1.02700
Fe67       Fe  0.72550265  0.76830973  0.19305628     1.65800
Fe68       Fe  0.70532930  0.88363160  0.19636823     1.73200
Fe69       Fe  0.69236937  0.81353985  0.23552222     1.54400
O70         O  0.66639974  0.74640299  0.23131552    -0.81900
O71         O  0.74627071  0.90946757  0.21645122    -0.80200
O72         O  0.67162276  0.73283503  0.19946338    -0.84400
O73         O  0.75601506  0.73589490  0.21661523    -0.79200
O74         O  0.63469972  0.84321241  0.23054257    -0.81000
O75         O  0.75664303  0.87172182  0.17806432    -0.83800
C76         C  0.76467726  0.74688082  0.23414068     0.97000
C77         C  0.65763049  0.72246546  0.21621877     1.04400
O78         O  0.70769984  0.82163377  0.20837310    -1.12700
O79         O  0.66399124  0.85997706  0.17591644    -0.75200
O80         O  0.69561292  0.79299699  0.16765199    -0.78700
O81         O  0.74909909  0.78317528  0.24214362    -0.79400
C82         C  0.66899696  0.82579928  0.16433328     0.95900
O83         O  0.78104432  0.80140603  0.18641375    -0.77300
O84         O  0.65490126  0.90605543  0.21356292    -0.82500
C85         C  0.73726139  0.91187174  0.23436571     0.98500
C86         C  0.62995092  0.88600358  0.22552329     1.04400
O87         O  0.71570440  0.88017115  0.24309550    -0.78200
C88         C  0.78670505  0.84230446  0.17938374     1.02700
Fe89       Fe  0.26299433  0.23325067  0.81220822     1.65800
Fe90       Fe  0.28758353  0.11921118  0.80820654     1.73200
Fe91       Fe  0.29973920  0.19131301  0.76964814     1.54400
O92         O  0.24184727  0.21824403  0.76310839    -0.81900
O93         O  0.33957720  0.10052441  0.79116900    -0.80200
O94         O  0.23185026  0.26459905  0.78871319    -0.84400
O95         O  0.31496402  0.27260091  0.80631668    -0.79200
O96         O  0.27903278  0.12394989  0.76139423    -0.81000
O97         O  0.32685478  0.14330457  0.82936881    -0.83800
C98         C  0.32714042  0.28589965  0.78958729     0.97000
C99         C  0.22466214  0.25357119  0.77107137     1.04400
O100        O  0.28395177  0.18159778  0.79671476    -1.12700
O101        O  0.23477069  0.12704687  0.82604317    -0.75200
O102        O  0.20880426  0.19687432  0.81824317    -0.78700
O103        O  0.32193701  0.26031178  0.77453890    -0.79400
C104        C  0.20383708  0.15517615  0.82456764     0.95900
O105        O  0.29336726  0.20943692  0.83752921    -0.77300
O106        O  0.24829723  0.09323811  0.78766489    -0.82500
C107        C  0.36445287  0.12120567  0.77928656     0.98500
C108        C  0.25745401  0.09172235  0.76978907     1.04400
O109        O  0.35874349  0.16389369  0.77424965    -0.78200
C110        C  0.32065070  0.17741124  0.84087784     1.02700
Fe111      Fe  0.47853728  0.23746094  0.93996536     1.65800
Fe112      Fe  0.45596043  0.12253638  0.94348283     1.73200
Fe113      Fe  0.44249386  0.19245269  0.98218849     1.54400
O114        O  0.49979866  0.22074758  0.98909235    -0.81900
O115        O  0.40354412  0.10228751  0.95988919    -0.80200
O116        O  0.50743597  0.26962282  0.96384696    -0.84400
O117        O  0.42466794  0.27384396  0.94545317    -0.79200
O118        O  0.46349398  0.12501841  0.99041000    -0.81000
O119        O  0.41717476  0.14750492  0.92224523    -0.83800
C120        C  0.41066218  0.28453318  0.96214127     0.97000
C121        C  0.51542199  0.25759745  0.98137266     1.04400
O122        O  0.45887288  0.18429722  0.95524396    -1.12700
O123        O  0.50950718  0.13296017  0.92632444    -0.75200
O124        O  0.53399247  0.20313627  0.93459399    -0.78700
O125        O  0.41867276  0.26029183  0.97736269    -0.79400
C126        C  0.53988313  0.16178884  0.92826611     0.95900
O127        O  0.45064805  0.21348933  0.91405764    -0.77300
O128        O  0.49402540  0.09462193  0.96427851    -0.82500
C129        C  0.37854926  0.12246176  0.97170416     0.98500
C130        C  0.48383467  0.09201932  0.98206382     1.04400
O131        O  0.38417589  0.16488651  0.97683276    -0.78200
C132        C  0.42334334  0.18164655  0.91060209     1.02700
Fe133      Fe  0.22776578  0.76857105  0.69233185     1.65800
Fe134      Fe  0.20096767  0.88175713  0.69581922     1.73200
Fe135      Fe  0.19040876  0.81060138  0.73464410     1.54400
O136        O  0.17008093  0.74100345  0.73001025    -0.81900
O137        O  0.23901363  0.91002072  0.71636974    -0.80200
O138        O  0.17552126  0.72993545  0.69809970    -0.84400
O139        O  0.25851376  0.73805591  0.71631454    -0.79200
O140        O  0.13086043  0.83488084  0.72938225    -0.81000
O141        O  0.25433330  0.87443148  0.67828050    -0.83800
C142        C  0.26614753  0.75028590  0.73381916     0.97000
C143        C  0.16388896  0.71623940  0.71483585     1.04400
O144        O  0.20628858  0.82014871  0.70761807    -1.12700
O145        O  0.16243271  0.85569868  0.67478776    -0.75200
O146        O  0.19819719  0.79151338  0.66647565    -0.78700
O147        O  0.24908993  0.78610094  0.74147383    -0.79400
C148        C  0.17012624  0.82264742  0.66298394     0.95900
O149        O  0.28171924  0.80522329  0.68641692    -0.77300
O150        O  0.14823434  0.89895749  0.71252270    -0.82500
C151        C  0.22944906  0.91176209  0.73421206     0.98500
C152        C  0.12368586  0.87709866  0.72415217     1.04400
O153        O  0.20863152  0.87904740  0.74268409    -0.78200
C154        C  0.28565286  0.84668445  0.67972535     1.02700
Fe155      Fe  0.01404506  0.76834420  0.56195604     1.65800
Fe156      Fe  0.04203416  0.88178671  0.55898765     1.73200
Fe157      Fe  0.05208843  0.81256203  0.51984857     1.54400
O158        O  0.07230641  0.74288137  0.52425881    -0.81900
O159        O  0.00479666  0.91212034  0.53840639    -0.80200
O160        O  0.06589299  0.72917293  0.55605563    -0.84400
O161        O  0.98340941  0.73883580  0.53782265    -0.79200
O162        O  0.11169866  0.83716764  0.52491393    -0.81000
O163        O  0.98843767  0.87389432  0.57631511    -0.83800
C164        C  0.97613174  0.75227399  0.52037704     0.97000
C165        C  0.07710135  0.71647928  0.53919384     1.04400
O166        O  0.03628464  0.82070792  0.54692316    -1.12700
O167        O  0.07983947  0.85423521  0.58013905    -0.75200
O168        O  0.04372696  0.78952165  0.58793386    -0.78700
O169        O  0.99351472  0.78834912  0.51296299    -0.79400
C170        C  0.07205575  0.82012937  0.59161205     0.95900
O171        O  0.96019090  0.80557922  0.56790548    -0.77300
O172        O  0.09499057  0.89969715  0.54248042    -0.82500
C173        C  0.01371522  0.91405203  0.52045590     0.98500
C174        C  0.11888438  0.87913796  0.53025982     1.04400
O175        O  0.03344609  0.88085335  0.51197783    -0.78200
C176        C  0.95662821  0.84714570  0.57442014     1.02700
Fe177      Fe  0.22919466  0.98629208  0.06055031     1.65800
Fe178      Fe  0.20509217  0.87201799  0.05744410     1.73200
Fe179      Fe  0.19493399  0.94211948  0.01811298     1.54400
O180        O  0.17171998  0.01022980  0.02230278    -0.81900
O181        O  0.24415046  0.84404576  0.03712945    -0.80200
O182        O  0.17640832  0.02382867  0.05418231    -0.84400
O183        O  0.26021057  0.01753824  0.03686788    -0.79200
O184        O  0.13595461  0.91485876  0.02260710    -0.81000
O185        O  0.25768782  0.88126864  0.07523453    -0.83800
C186        C  0.26861898  0.00592371  0.01938627     0.97000
C187        C  0.16374738  0.03491224  0.03728570     1.04400
O188        O  0.20948403  0.93363491  0.04534653    -1.12700
O189        O  0.16528636  0.89748129  0.07824191    -0.75200
O190        O  0.19927026  0.96296460  0.08618453    -0.78700
O191        O  0.25289875  0.96939951  0.01172345    -0.79400
C192        C  0.17129266  0.93176558  0.08966954     0.95900
O193        O  0.28362299  0.95113929  0.06701609    -0.77300
O194        O  0.15353148  0.85257636  0.04050631    -0.82500
C195        C  0.23483615  0.84159937  0.01927191     0.98500
C196        C  0.12973518  0.87259848  0.02805395     1.04400
O197        O  0.21566881  0.87489656  0.01051587    -0.78200
C198        C  0.28832046  0.91006169  0.07400816     1.02700
Fe199      Fe  0.01631276  0.98543003  0.19070727     1.65800
Fe200      Fe  0.04126562  0.87136451  0.19356093     1.73200
Fe201      Fe  0.05650395  0.94141577  0.23222926     1.54400
O202        O  0.07834304  0.01075787  0.22717162    -0.81900
O203        O  0.00407949  0.84357945  0.21482381    -0.80200
O204        O  0.06972850  0.02246048  0.19550335    -0.84400
O205        O  0.98748015  0.01604179  0.21519612    -0.79200
O206        O  0.11489659  0.91456670  0.22589947    -0.81000
O207        O  0.98727029  0.88077293  0.17677498    -0.83800
C208        C  0.98119777  0.00372125  0.23290158     0.97000
C209        C  0.08275797  0.03612802  0.21186598     1.04400
O210        O  0.03804957  0.93287451  0.20553368    -1.12700
O211        O  0.07868388  0.89679230  0.17175799    -0.75200
O212        O  0.04395789  0.96286412  0.16449357    -0.78700
O213        O  0.99926709  0.96815136  0.24039590    -0.79400
C214        C  0.07095281  0.93108232  0.16041259     0.95900
O215        O  0.96132694  0.95009549  0.18543751    -0.77300
O216        O  0.09450821  0.85169780  0.20939165    -0.82500
C217        C  0.01480474  0.84125273  0.23251394     0.98500
C218        C  0.12015169  0.87199092  0.22084111     1.04400
O219        O  0.03671263  0.87340444  0.24058440    -0.78200
C220        C  0.95655079  0.90921610  0.17843493     1.02700
Fe221      Fe  0.98156769  0.51736615  0.31164014     1.65800
Fe222      Fe  0.95679256  0.63142727  0.30799354     1.73200
Fe223      Fe  0.94568230  0.56131516  0.26915007     1.54400
O224        O  0.00353386  0.53378209  0.26239452    -0.81900
O225        O  0.90546251  0.65123349  0.29097166    -0.80200
O226        O  0.01266564  0.48597225  0.28786112    -0.84400
O227        O  0.92902658  0.47956212  0.30585986    -0.79200
O228        O  0.96699819  0.62879891  0.26114267    -0.81000
O229        O  0.91674526  0.60579396  0.32882571    -0.83800
C230        C  0.91601426  0.46760672  0.28920883     0.97000
C231        C  0.02037101  0.49786625  0.27023071     1.04400
O232        O  0.96120086  0.56980985  0.29620813    -1.12700
O233        O  0.00864960  0.62191852  0.32608955    -0.75200
O234        O  0.03586732  0.55304728  0.31772617    -0.78700
O235        O  0.92231352  0.49288987  0.27403586    -0.79400
C236        C  0.03979203  0.59401886  0.32471941     0.95900
O237        O  0.95136743  0.54071891  0.33728783    -0.77300
O238        O  0.99640221  0.65939847  0.28759754    -0.82500
C239        C  0.88069276  0.63111202  0.27911973     0.98500
C240        C  0.98777849  0.66121882  0.26963670     1.04400
O241        O  0.88676980  0.58881652  0.27383799    -0.78200
C242        C  0.92318357  0.57186114  0.34056719     1.02700
Fe243      Fe  0.76913574  0.51952096  0.44235569     1.65800
Fe244      Fe  0.79102220  0.63498713  0.44475003     1.73200
Fe245      Fe  0.80384853  0.56580986  0.48432314     1.54400
O246        O  0.74622712  0.53805111  0.49128458    -0.81900
O247        O  0.84400905  0.65491407  0.46082386    -0.80200
O248        O  0.73889758  0.48861323  0.46645497    -0.84400
O249        O  0.82264529  0.48355974  0.44865770    -0.79200
O250        O  0.78292115  0.63325742  0.49202141    -0.81000
O251        O  0.82929819  0.61023070  0.42302595    -0.83800
C252        C  0.83583211  0.47286747  0.46548910     0.97000
C253        C  0.73011593  0.50154215  0.48376071     1.04400
O254        O  0.78818777  0.57336975  0.45712019    -1.12700
O255        O  0.73681440  0.62471114  0.42806781    -0.75200
O256        O  0.71398592  0.55316377  0.43582212    -0.78700
O257        O  0.82767400  0.49765837  0.48042326    -0.79400
C258        C  0.70735816  0.59433890  0.42927513     0.95900
O259        O  0.79819931  0.54192680  0.41634576    -0.77300
O260        O  0.75309031  0.66345050  0.46553864    -0.82500
C261        C  0.86845716  0.63516530  0.47312577     0.98500
C262        C  0.76211665  0.66559304  0.48341647     1.04400
O263        O  0.86228828  0.59323798  0.47898567    -0.78200
C264        C  0.82369087  0.57511475  0.41198201     1.02700
Fe265      Fe  0.51816527  0.98756421  0.69301104     1.65800
Fe266      Fe  0.53910455  0.87240046  0.69584042     1.73200
Fe267      Fe  0.55326157  0.94105056  0.73502537     1.54400
O268        O  0.57704724  0.00961618  0.73057988    -0.81900
O269        O  0.50026617  0.84519620  0.71663026    -0.80200
O270        O  0.57237345  0.02209818  0.69868467    -0.84400
O271        O  0.48874038  0.01920695  0.71704084    -0.79200
O272        O  0.61144011  0.91232557  0.72971253    -0.81000
O273        O  0.48571693  0.88414980  0.67877871    -0.83800
C274        C  0.47947324  0.00568257  0.73427605     0.97000
C275        C  0.58392797  0.03481232  0.71544237     1.04400
O276        O  0.53709369  0.93375802  0.70796647    -1.12700
O277        O  0.57835294  0.89680542  0.67435769    -0.75200
O278        O  0.54633560  0.96438434  0.66706044    -0.78700
O279        O  0.49565828  0.96918079  0.74197653    -0.79400
C280        C  0.57280759  0.93196889  0.66315150     0.95900
O281        O  0.46247986  0.95474814  0.68719029    -0.77300
O282        O  0.59110385  0.85093625  0.71224721    -0.82500
C283        C  0.51034814  0.84185702  0.73436976     0.98500
C284        C  0.61608712  0.86973279  0.72442070     1.04400
O285        O  0.53180261  0.87360200  0.74288809    -0.78200
C286        C  0.45597408  0.91394197  0.68048873     1.02700
Fe287      Fe  0.72540291  0.98806124  0.56168729     1.65800
Fe288      Fe  0.70153057  0.87407081  0.55799043     1.73200
Fe289      Fe  0.69064134  0.94528780  0.51908009     1.54400
O290        O  0.66584591  0.01277831  0.52403858    -0.81900
O291        O  0.74115158  0.84671719  0.53771351    -0.80200
O292        O  0.67215987  0.02503304  0.55594746    -0.84400
O293        O  0.75524007  0.02096199  0.53806940    -0.79200
O294        O  0.63226822  0.91737323  0.52370275    -0.81000
O295        O  0.75387292  0.88362292  0.57590806    -0.83800
C296        C  0.76340555  0.01058321  0.52043619     0.97000
C297        C  0.65765589  0.03624344  0.53938797     1.04400
O298        O  0.70572515  0.93597132  0.54617441    -1.12700
O299        O  0.66140452  0.89901946  0.57882006    -0.75200
O300        O  0.69657070  0.96322939  0.58746224    -0.78700
O301        O  0.74796421  0.97421023  0.51251970    -0.79400
C302        C  0.66894950  0.93153361  0.59089718     0.95900
O303        O  0.78027903  0.95294004  0.56738096    -0.77300
O304        O  0.65040931  0.85424640  0.54079452    -0.82500
C305        C  0.73302185  0.84531067  0.51971627     0.98500
C306        C  0.62664423  0.87465863  0.52844030     1.04400
O307        O  0.71272300  0.87812922  0.51104153    -0.78200
C308        C  0.78497661  0.91155641  0.57412177     1.02700
Fe309      Fe  0.47477881  0.51396796  0.81095253     1.65800
Fe310      Fe  0.45611575  0.62987255  0.80842847     1.73200
Fe311      Fe  0.43779726  0.56249837  0.76963772     1.54400
O312        O  0.49344479  0.53252622  0.76167898    -0.81900
O313        O  0.40474471  0.65432679  0.79229225    -0.80200
O314        O  0.50232312  0.48249329  0.78650573    -0.84400
O315        O  0.41969122  0.47960477  0.80568709    -0.79200
O316        O  0.46134751  0.62913402  0.76179756    -0.81000
O317        O  0.41639579  0.60592747  0.82948855    -0.83800
C318        C  0.40403336  0.47037529  0.78920689     0.97000
C319        C  0.50982425  0.49585571  0.76906204     1.04400
O320        O  0.45623958  0.56851436  0.79630835    -1.12700
O321        O  0.50847393  0.61573765  0.82571406    -0.75200
O322        O  0.53156306  0.54560681  0.81659654    -0.78700
O323        O  0.41158436  0.49537430  0.77410818    -0.79400
C324        C  0.53802617  0.58581686  0.82396043     0.95900
O325        O  0.44805893  0.53820149  0.83707577    -0.77300
O326        O  0.49568416  0.65576107  0.78762831    -0.82500
C327        C  0.37802520  0.63553663  0.78097773     0.98500
C328        C  0.48464291  0.65974934  0.77002279     1.04400
O329        O  0.38108153  0.59253890  0.77621564    -0.78200
C330        C  0.42251761  0.57158864  0.84100949     1.02700
Fe331      Fe  0.26605438  0.51974804  0.94110684     1.65800
Fe332      Fe  0.29423585  0.63275828  0.94462996     1.73200
Fe333      Fe  0.30494599  0.56090247  0.98335003     1.54400
O334        O  0.24751525  0.53309882  0.99073079    -0.81900
O335        O  0.34603512  0.65211344  0.96152409    -0.80200
O336        O  0.23512448  0.48857226  0.96483967    -0.84400
O337        O  0.31764406  0.47988308  0.94646579    -0.79200
O338        O  0.28372339  0.62781725  0.99151032    -0.81000
O339        O  0.33326665  0.60601344  0.92391081    -0.83800
C340        C  0.33211816  0.46745657  0.96285641     0.97000
C341        C  0.22928129  0.49855061  0.98271826     1.04400
O342        O  0.28842874  0.57090395  0.95646878    -1.12700
O343        O  0.24195812  0.62512644  0.92659659    -0.75200
O344        O  0.21254046  0.55723316  0.93518162    -0.78700
O345        O  0.32778279  0.49269038  0.97805647    -0.79400
C346        C  0.21007295  0.59819838  0.92784165     0.95900
O347        O  0.29586408  0.54293387  0.91551568    -0.77300
O348        O  0.25566408  0.66078653  0.96508967    -0.82500
C349        C  0.37008952  0.63114304  0.97353686     0.98500
C350        C  0.26386440  0.66131742  0.98312171     1.04400
O351        O  0.36386494  0.58843374  0.97838333    -0.78200
C352        C  0.32520881  0.57265673  0.91228144     1.02700
Fe353      Fe  0.73047078  0.48550345  0.06028518     1.65800
Fe354      Fe  0.70189409  0.37266370  0.05767758     1.73200
Fe355      Fe  0.69458907  0.44210814  0.01779297     1.54400
O356        O  0.67105155  0.51027919  0.02222772    -0.81900
O357        O  0.74050306  0.34197655  0.03777646    -0.80200
O358        O  0.67881514  0.52517631  0.05398144    -0.84400
O359        O  0.76207403  0.51603212  0.03680886    -0.79200
O360        O  0.63518816  0.41443138  0.02150845    -0.81000
O361        O  0.75423251  0.38048255  0.07564587    -0.83800
C362        C  0.76984477  0.50482298  0.01926929     0.97000
C363        C  0.66461974  0.53557700  0.03724723     1.04400
O364        O  0.70863549  0.43361481  0.04513523    -1.12700
O365        O  0.66221145  0.40088258  0.07810305    -0.75200
O366        O  0.70070711  0.46328154  0.08603668    -0.78700
O367        O  0.75269354  0.46949817  0.01134698    -0.79400
C368        C  0.67111545  0.43415460  0.08962289     0.95900
O369        O  0.78380866  0.44785316  0.06646883    -0.77300
O370        O  0.65065143  0.35402157  0.04074009    -0.82500
C371        C  0.73437306  0.34132975  0.01956717     0.98500
C372        C  0.62801205  0.37283138  0.02762825     1.04400
O373        O  0.71631458  0.37502337  0.01049492    -0.78200
C374        C  0.78641454  0.40673608  0.07368160     1.02700
Fe375      Fe  0.51723311  0.48800836  0.19074394     1.65800
Fe376      Fe  0.54493907  0.37442444  0.19335480     1.73200
Fe377      Fe  0.55436617  0.44301346  0.23281315     1.54400
O378        O  0.57678922  0.51181258  0.22836818    -0.81900
O379        O  0.50656649  0.34355395  0.21359390    -0.80200
O380        O  0.56923957  0.52736250  0.19670736    -0.84400
O381        O  0.48680357  0.51841844  0.21461054    -0.79200
O382        O  0.61370158  0.41602479  0.22832183    -0.81000
O383        O  0.49226432  0.38342322  0.17562518    -0.83800
C384        C  0.47917857  0.50528053  0.23201840     0.97000
C385        C  0.58190412  0.53865333  0.21356631     1.04400
O386        O  0.53914460  0.43535456  0.20570508    -1.12700
O387        O  0.58419429  0.40272538  0.17264555    -0.75200
O388        O  0.54601345  0.46588836  0.16477612    -0.78700
O389        O  0.49623840  0.46931623  0.23962219    -0.79400
C390        C  0.57512659  0.43628312  0.16114098     0.95900
O391        O  0.46339228  0.45091453  0.18483805    -0.77300
O392        O  0.59664467  0.35491417  0.21008311    -0.82500
C393        C  0.51366543  0.34256501  0.23173941     0.98500
C394        C  0.62038340  0.37415472  0.22259189     1.04400
O395        O  0.53311848  0.37573225  0.24033006    -0.78200
C396        C  0.46037414  0.41013278  0.17750535     1.02700
Fe397      Fe  0.26503352  0.01976227  0.44275325     1.65800
Fe398      Fe  0.28972710  0.13365651  0.44523769     1.73200
Fe399      Fe  0.30379940  0.06435367  0.48441336     1.54400
O400        O  0.24674700  0.03604846  0.49219692    -0.81900
O401        O  0.34155913  0.15450319  0.46140520    -0.80200
O402        O  0.23616581  0.98841579  0.46705064    -0.84400
O403        O  0.31822363  0.98264197  0.44790865    -0.79200
O404        O  0.28262302  0.13198346  0.49223234    -0.81000
O405        O  0.32872741  0.10718225  0.42442094    -0.83800
C406        C  0.33233606  0.97057894  0.46440839     0.97000
C407        C  0.22938209  0.00026428  0.48467412     1.04400
O408        O  0.28619900  0.07241343  0.45758858    -1.12700
O409        O  0.23705860  0.12308827  0.42783682    -0.75200
O410        O  0.21008814  0.05489291  0.43739798    -0.78700
O411        O  0.32722427  0.99593804  0.47954384    -0.79400
C412        C  0.20578765  0.09573980  0.43011818     0.95900
O413        O  0.29288521  0.04289846  0.41651288    -0.77300
O414        O  0.25156771  0.16227465  0.46594774    -0.82500
C415        C  0.36677485  0.13540168  0.47338627     0.98500
C416        C  0.26173296  0.16463365  0.48374410     1.04400
O417        O  0.36210333  0.09272711  0.47870273    -0.78200
C418        C  0.32151577  0.07332137  0.41293331     1.02700
Fe419      Fe  0.47711865  0.01958904  0.31256669     1.65800
Fe420      Fe  0.45321817  0.13386115  0.30888503     1.73200
Fe421      Fe  0.44027569  0.06274222  0.27028514     1.54400
O422        O  0.49866448  0.03709694  0.26307655    -0.81900
O423        O  0.39961175  0.15145052  0.29289267    -0.80200
O424        O  0.50762980  0.98996692  0.28868289    -0.84400
O425        O  0.42406305  0.98245167  0.30691263    -0.79200
O426        O  0.45839859  0.13099580  0.26170427    -0.81000
O427        O  0.41604220  0.10929041  0.33103104    -0.83800
C428        C  0.41386323  0.96795463  0.29023957     0.97000
C429        C  0.51614875  0.00182484  0.27118584     1.04400
O430        O  0.45682366  0.07205079  0.29726960    -1.12700
O431        O  0.50807861  0.12578398  0.32535375    -0.75200
O432        O  0.53180259  0.05431406  0.31851495    -0.78700
O433        O  0.41982157  0.99310446  0.27503206    -0.79400
C434        C  0.53792999  0.09589548  0.32443806     0.95900
O435        O  0.44813263  0.04170860  0.33834064    -0.77300
O436        O  0.48975955  0.16163540  0.28745738    -0.82500
C437        C  0.37490665  0.13063417  0.28115691     0.98500
C438        C  0.47869526  0.16422537  0.26982315     1.04400
O439        O  0.38118049  0.08818514  0.27607255    -0.78200
C440        C  0.42210080  0.07441871  0.34229657     1.02700
Fe441      Fe  0.01807640  0.48751561  0.69237157     1.65800
Fe442      Fe  0.03857515  0.37213349  0.69515361     1.73200
Fe443      Fe  0.05429244  0.44051640  0.73416262     1.54400
O444        O  0.07862242  0.50823485  0.72973228    -0.81900
O445        O  0.00073424  0.34484035  0.71628151    -0.80200
O446        O  0.07256739  0.52253278  0.69793816    -0.84400
O447        O  0.98969050  0.51881956  0.71676087    -0.79200
O448        O  0.11197515  0.41262686  0.72791608    -0.81000
O449        O  0.98447397  0.38380071  0.67852141    -0.83800
C450        C  0.98202128  0.50642034  0.73432687     0.97000
C451        C  0.08689081  0.53265247  0.71458703     1.04400
O452        O  0.03697415  0.43352692  0.70725049    -1.12700
O453        O  0.07722627  0.39653790  0.67350858    -0.75200
O454        O  0.04573770  0.46413783  0.66609506    -0.78700
O455        O  0.99754126  0.46922208  0.74177269    -0.79400
C456        C  0.07160328  0.43107519  0.66202972     0.95900
O457        O  0.96182824  0.45484674  0.68671193    -0.77300
O458        O  0.09109924  0.35056367  0.71110708    -0.82500
C459        C  0.01223154  0.34067499  0.73382379     0.98500
C460        C  0.11649389  0.36997116  0.72290545     1.04400
O461        O  0.03326532  0.37292425  0.74222269    -0.78200
C462        C  0.95492448  0.41387638  0.68017848     1.02700
Fe463      Fe  0.22434696  0.49297983  0.56028385     1.65800
Fe464      Fe  0.20648568  0.37648180  0.55785915     1.73200
Fe465      Fe  0.19438503  0.44461073  0.51795494     1.54400
O466        O  0.16730855  0.51139037  0.52152913    -0.81900
O467        O  0.24692128  0.34882560  0.53774367    -0.80200
O468        O  0.16982090  0.52624550  0.55335296    -0.84400
O469        O  0.25503480  0.52565120  0.53669376    -0.79200
O470        O  0.13678992  0.41342415  0.52208400    -0.81000
O471        O  0.25866715  0.38995841  0.57526980    -0.83800
C472        C  0.26612044  0.51235270  0.51973887     0.97000
C473        C  0.15718770  0.53584437  0.53632303     1.04400
O474        O  0.20802560  0.43807249  0.54536926    -1.12700
O475        O  0.16566825  0.40017299  0.57887878    -0.75200
O476        O  0.19476530  0.46932362  0.58595728    -0.78700
O477        O  0.25143171  0.47530884  0.51203686    -0.79400
C478        C  0.16939972  0.43572425  0.58988932     0.95900
O479        O  0.28032622  0.46163785  0.56711508    -0.77300
O480        O  0.15570972  0.35353707  0.54111226    -0.82500
C481        C  0.23881566  0.34620187  0.51976630     0.98500
C482        C  0.13174174  0.37137144  0.52818999     1.04400
O483        O  0.21859667  0.37841488  0.51079467    -0.78200
C484        C  0.28780556  0.42046587  0.57343115     1.02700
Fe485      Fe  0.97308026  0.01417332  0.81114372     1.65800
Fe486      Fe  0.94853795  0.12830493  0.80763432     1.73200
Fe487      Fe  0.93822376  0.05870866  0.76864756     1.54400
O488        O  0.99522265  0.02917294  0.76204892    -0.81900
O489        O  0.89739285  0.14940430  0.79065795    -0.80200
O490        O  0.00250715  0.98166690  0.78757765    -0.84400
O491        O  0.91936304  0.97772322  0.80547583    -0.79200
O492        O  0.96124180  0.12531754  0.76071777    -0.81000
O493        O  0.90841788  0.10175975  0.82816671    -0.83800
C494        C  0.90481288  0.96768983  0.78883688     0.97000
C495        C  0.01057109  0.99250178  0.76995006     1.04400
O496        O  0.95327576  0.06693635  0.79569166    -1.12700
O497        O  0.00043307  0.11752888  0.82564046    -0.75200
O498        O  0.02826172  0.04931355  0.81677114    -0.78700
O499        O  0.91298949  0.99173231  0.77356263    -0.79400
C500        C  0.03211106  0.09067252  0.82350036     0.95900
O501        O  0.94475206  0.03808598  0.83686946    -0.77300
O502        O  0.98803572  0.15712474  0.78747055    -0.82500
C503        C  0.87356321  0.12939560  0.77835741     0.98500
C504        C  0.98075597  0.15843400  0.76935892     1.04400
O505        O  0.87988830  0.08719384  0.77321936    -0.78200
C506        C  0.91663770  0.06904883  0.84020666     1.02700
Fe507      Fe  0.76914589  0.01609492  0.94369584     1.65800
Fe508      Fe  0.79533549  0.12958950  0.94542872     1.73200
Fe509      Fe  0.80878246  0.06094192  0.98493187     1.54400
O510        O  0.75081049  0.03569748  0.99291810    -0.81900
O511        O  0.84875723  0.14858618  0.96101377    -0.80200
O512        O  0.74052148  0.98624387  0.96831149    -0.84400
O513        O  0.82233758  0.97894544  0.94897029    -0.79200
O514        O  0.79003386  0.12930028  0.99251674    -0.81000
O515        O  0.83256929  0.10247715  0.92413025    -0.83800
C516        C  0.83479063  0.96584796  0.96562998     0.97000
C517        C  0.73337946  0.99961061  0.98570022     1.04400
O518        O  0.79114282  0.06879543  0.95807306    -1.12700
O519        O  0.74097156  0.12046074  0.92884950    -0.75200
O520        O  0.71442633  0.05173472  0.93827500    -0.78700
O521        O  0.82965966  0.99138845  0.98067545    -0.79400
C522        C  0.70992914  0.09250311  0.93094048     0.95900
O523        O  0.79628221  0.03774298  0.91720982    -0.77300
O524        O  0.75880359  0.15906638  0.96629726    -0.82500
C525        C  0.87374927  0.12846294  0.97290054     0.98500
C526        C  0.76940936  0.16193873  0.98398585     1.04400
O527        O  0.86772867  0.08636910  0.97863500    -0.78200
C528        C  0.82426439  0.06835305  0.91297498     1.02700
Fe529      Fe  0.97949163  0.73834291  0.94094649     1.65800
Fe530      Fe  0.95888260  0.62271399  0.94346079     1.73200
Fe531      Fe  0.94668164  0.69024585  0.98301828     1.54400
O532        O  0.00435346  0.71821139  0.98943297    -0.81900
O533        O  0.90755778  0.60082556  0.96030060    -0.80200
O534        O  0.00949476  0.76944885  0.96481777    -0.84400
O535        O  0.92534986  0.77286327  0.94749204    -0.79200
O536        O  0.96837081  0.62274956  0.99026979    -0.81000
O537        O  0.91824159  0.64833519  0.92292630    -0.83800
C538        C  0.91219305  0.78262660  0.96440812     0.97000
C539        C  0.01953733  0.75542302  0.98186398     1.04400
O540        O  0.96169117  0.68380476  0.95583505    -1.12700
O541        O  0.01157978  0.63529932  0.92579000    -0.75200
O542        O  0.03478811  0.70590797  0.93430454    -0.78700
O543        O  0.92194163  0.75815497  0.97933812    -0.79400
C544        C  0.04116330  0.66542312  0.92724261     0.95900
O545        O  0.95087430  0.71533160  0.91515054    -0.77300
O546        O  0.99843246  0.59398760  0.96363353    -0.82500
C547        C  0.88295242  0.62011678  0.97254853     0.98500
C548        C  0.98894860  0.59065205  0.98149252     1.04400
O549        O  0.88841896  0.66238158  0.97795962    -0.78200
C550        C  0.92340321  0.68366452  0.91181152     1.02700
Fe551      Fe  0.76424654  0.73207936  0.81293161     1.65800
Fe552      Fe  0.79272692  0.61922602  0.80997702     1.73200
Fe553      Fe  0.80244269  0.69000298  0.77067707     1.54400
O554        O  0.74450429  0.71735587  0.76373136    -0.81900
O555        O  0.84475994  0.60098998  0.79332151    -0.80200
O556        O  0.73381258  0.76363890  0.78924681    -0.84400
O557        O  0.81603814  0.77188284  0.80734121    -0.79200
O558        O  0.78145960  0.62311619  0.76285970    -0.81000
O559        O  0.83178893  0.64695424  0.83059571    -0.83800
C560        C  0.82931000  0.78412748  0.79063460     0.97000
C561        C  0.72710940  0.75275658  0.77156559     1.04400
O562        O  0.78670751  0.68060699  0.79774368    -1.12700
O563        O  0.73947228  0.62653388  0.82766755    -0.75200
O564        O  0.71083863  0.69424858  0.81843777    -0.78700
O565        O  0.82471299  0.75829455  0.77564897    -0.79400
C566        C  0.70759423  0.65325262  0.82569234     0.95900
O567        O  0.79295994  0.70906827  0.83880444    -0.77300
O568        O  0.75501783  0.58945878  0.78962291    -0.82500
C569        C  0.86860312  0.62067055  0.78083981     0.98500
C570        C  0.76237145  0.58940011  0.77148727     1.04400
O571        O  0.86180281  0.66262362  0.77504012    -0.78200
C572        C  0.82318767  0.68056977  0.84198021     1.02700
Fe573      Fe  0.01914424  0.26433139  0.06070457     1.65800
Fe574      Fe  0.03939611  0.37969414  0.05760160     1.73200
Fe575      Fe  0.05547262  0.31062083  0.01884283     1.54400
O576        O  0.07858297  0.24192863  0.02337119    -0.81900
O577        O  0.00136591  0.40686591  0.03648781    -0.80200
O578        O  0.07403884  0.23068161  0.05528992    -0.84400
O579        O  0.99101154  0.23244219  0.03645582    -0.79200
O580        O  0.11340263  0.33873745  0.02472448    -0.81000
O581        O  0.98531258  0.36770511  0.07436492    -0.83800
C582        C  0.98253480  0.24596093  0.01914492     0.97000
C583        C  0.08492781  0.21693531  0.03857725     1.04400
O584        O  0.03794469  0.31819988  0.04570096    -1.12700
O585        O  0.07805479  0.35535049  0.07922555    -0.75200
O586        O  0.04629000  0.28780664  0.08677255    -0.78700
O587        O  0.99830495  0.28293855  0.01165903    -0.79400
C588        C  0.07285144  0.32020196  0.09049957     0.95900
O589        O  0.96289584  0.29644653  0.06635185    -0.77300
O590        O  0.09212139  0.40104659  0.04143307    -0.82500
C591        C  0.01225946  0.40974195  0.01879623     0.98500
C592        C  0.11793665  0.38146874  0.02977033     1.04400
O593        O  0.03446037  0.37794219  0.01068284    -0.78200
C594        C  0.95589454  0.33740671  0.07283570     1.02700
Fe595      Fe  0.22968703  0.26553471  0.19059701     1.65800
Fe596      Fe  0.20855664  0.38081596  0.19318618     1.73200
Fe597      Fe  0.19504911  0.31207694  0.23262041     1.54400
O598        O  0.16989018  0.24428421  0.22856721    -0.81900
O599        O  0.24823648  0.40833331  0.21333344    -0.80200
O600        O  0.17583291  0.23005824  0.19679114    -0.84400
O601        O  0.25906581  0.23356918  0.21465280    -0.79200
O602        O  0.13704996  0.34132070  0.22766485    -0.81000
O603        O  0.26118187  0.36884201  0.17549579    -0.83800
C604        C  0.26700785  0.24566245  0.23212930     0.97000
C605        C  0.16218909  0.21935947  0.21359066     1.04400
O606        O  0.21090536  0.31929234  0.20549963    -1.12700
O607        O  0.16837170  0.35597558  0.17252507    -0.75200
O608        O  0.20092045  0.28930302  0.16465649    -0.78700
O609        O  0.25191780  0.28298325  0.23942516    -0.79400
C610        C  0.17427908  0.32189661  0.16099270     0.95900
O611        O  0.28530397  0.29875646  0.18436413    -0.77300
O612        O  0.15721687  0.40293723  0.21004159    -0.82500
C613        C  0.23904019  0.41112920  0.23120551     0.98500
C614        C  0.13238713  0.38398987  0.22240464     1.04400
O615        O  0.21791576  0.37906023  0.23995649    -0.78200
C616        C  0.29132734  0.33956528  0.17731755     1.02700
Fe617      Fe  0.26844951  0.73737301  0.30875536     1.65800
Fe618      Fe  0.29214945  0.62272677  0.30670050     1.73200
Fe619      Fe  0.30593191  0.69134335  0.26713627     1.54400
O620        O  0.24863728  0.71899941  0.25961674    -0.81900
O621        O  0.34456906  0.60198151  0.29060664    -0.80200
O622        O  0.23927648  0.76821673  0.28441702    -0.84400
O623        O  0.32190108  0.77382838  0.30306208    -0.79200
O624        O  0.28474369  0.62379989  0.25960514    -0.81000
O625        O  0.33063613  0.64880045  0.32778858    -0.83800
C626        C  0.33692055  0.78425040  0.28650872     0.97000
C627        C  0.23161201  0.75510063  0.26704899     1.04400
O628        O  0.28891030  0.68393138  0.29414403    -1.12700
O629        O  0.23875298  0.63337963  0.32386890    -0.75200
O630        O  0.21341963  0.70287549  0.31480734    -0.78700
O631        O  0.32999428  0.75948929  0.27140959    -0.79400
C632        C  0.20838791  0.66238906  0.32234001     0.95900
O633        O  0.29641551  0.71490195  0.33497237    -0.77300
O634        O  0.25429440  0.59383588  0.28609822    -0.82500
C635        C  0.36958422  0.62154240  0.27851925     0.98500
C636        C  0.26389136  0.59134362  0.26824232     1.04400
O637        O  0.36422443  0.66370380  0.27280085    -0.78200
C638        C  0.32334375  0.68300747  0.33908705     1.02700
Fe639      Fe  0.47981631  0.74080817  0.43931370     1.65800
Fe640      Fe  0.45296866  0.62674759  0.44327483     1.73200
Fe641      Fe  0.44575604  0.69702193  0.48225012     1.54400
O642        O  0.50460583  0.72191133  0.48774480    -0.81900
O643        O  0.40096321  0.60931331  0.46054828    -0.80200
O644        O  0.51199570  0.77133697  0.46269810    -0.84400
O645        O  0.42781339  0.77960233  0.44592971    -0.79200
O646        O  0.46564314  0.62961777  0.49019836    -0.81000
O647        O  0.41392563  0.65375065  0.42237599    -0.83800
C648        C  0.41477363  0.79004180  0.46282422     0.97000
C649        C  0.52113975  0.75792823  0.47993323     1.04400
O650        O  0.45925779  0.68830777  0.45493813    -1.12700
O651        O  0.50578945  0.63442353  0.42539445    -0.75200
O652        O  0.53353689  0.70402942  0.43261093    -0.78700
O653        O  0.42349799  0.76558842  0.47788726    -0.79400
C654        C  0.53718762  0.66217952  0.42641449     0.95900
O655        O  0.44890890  0.71861890  0.41388314    -0.77300
O656        O  0.49122999  0.59616749  0.46355323    -0.82500
C657        C  0.37835661  0.62973987  0.47333562     0.98500
C658        C  0.48395704  0.59557141  0.48168767     1.04400
O659        O  0.38602683  0.67157252  0.47866742    -0.78200
C660        C  0.42078435  0.68757418  0.41061704     1.02700
Fe661      Fe  0.72498726  0.26930494  0.69227043     1.65800
Fe662      Fe  0.69763909  0.38285813  0.69462198     1.73200
Fe663      Fe  0.68638520  0.31297234  0.73412564     1.54400
O664        O  0.66486906  0.24433714  0.72988885    -0.81900
O665        O  0.73393846  0.41303436  0.71537195    -0.80200
O666        O  0.67275099  0.22993973  0.69818357    -0.84400
O667        O  0.75511090  0.23988603  0.71648131    -0.79200
O668        O  0.62726902  0.33814072  0.72854429    -0.81000
O669        O  0.75225687  0.37550807  0.67782602    -0.83800
C670        C  0.76195391  0.25167497  0.73409344     0.97000
C671        C  0.65845010  0.21928368  0.71488843     1.04400
O672        O  0.70293953  0.32159936  0.70705842    -1.12700
O673        O  0.66004986  0.35552152  0.67341443    -0.75200
O674        O  0.69615883  0.29081603  0.66611213    -0.78700
O675        O  0.74426000  0.28716642  0.74166894    -0.79400
C676        C  0.66722392  0.32072249  0.66243628     0.95900
O677        O  0.77903731  0.30622940  0.68634019    -0.77300
O678        O  0.64419707  0.40049163  0.71056313    -0.82500
C679        C  0.72494689  0.41414925  0.73332077     0.98500
C680        C  0.62005780  0.37983203  0.72272693     1.04400
O681        O  0.70545500  0.38066400  0.74185205    -0.78200
C682        C  0.78344010  0.34763311  0.67958688     1.02700
Fe683      Fe  0.51345711  0.27138918  0.56147838     1.65800
Fe684      Fe  0.54346354  0.38386810  0.55877734     1.73200
Fe685      Fe  0.55246582  0.31452998  0.51938832     1.54400
O686        O  0.57378459  0.24536915  0.52438751    -0.81900
O687        O  0.50708093  0.41588884  0.53824291    -0.80200
O688        O  0.56577107  0.23242407  0.55617618    -0.84400
O689        O  0.48410843  0.24054942  0.53754829    -0.79200
O690        O  0.61200733  0.34018323  0.52414909    -0.81000
O691        O  0.48945000  0.37618011  0.57593168    -0.83800
C692        C  0.47734481  0.25231194  0.51992142     0.97000
C693        C  0.57893807  0.21978208  0.53955706     1.04400
O694        O  0.53646239  0.32326702  0.54640052    -1.12700
O695        O  0.58134592  0.35439301  0.57969457    -0.75200
O696        O  0.54081035  0.29333778  0.58768885    -0.78700
O697        O  0.49415475  0.28858134  0.51229690    -0.79400
C698        C  0.57127155  0.32114324  0.59118055     0.95900
O699        O  0.45980692  0.30901275  0.56670085    -0.77300
O700        O  0.59630536  0.40182961  0.54242499    -0.82500
C701        C  0.51540290  0.41705994  0.52018758     0.98500
C702        C  0.61950175  0.38185496  0.52980920     1.04400
O703        O  0.53325863  0.38273520  0.51151670    -0.78200
C704        C  0.45719993  0.35010479  0.57374471     1.02700
C705        C  0.64140300  0.31605472  0.64456733    -0.00400
C706        C  0.66083478  0.30372125  0.62693749    -0.12200
C707        C  0.63821836  0.30427065  0.60941919     0.01900
C708        C  0.59512696  0.31583955  0.60945971    -0.00500
C709        C  0.57515951  0.32583569  0.62713577    -0.12200
C710        C  0.59789487  0.32662786  0.64457363     0.01800
H711        H  0.69409217  0.29555728  0.62671360     0.14700
H712        H  0.54203601  0.33474924  0.62721031     0.14700
C713        C  0.57572543  0.33853573  0.66225020     0.36400
C714        C  0.65982508  0.29320449  0.59151753     0.36300
N715        N  0.55798380  0.34823694  0.67639323    -0.44000
N716        N  0.67698005  0.28438739  0.57712388    -0.44000
C717        C  0.50674805  0.46163303  0.50953686    -0.00400
C718        C  0.47678127  0.49275488  0.51726975    -0.12200
C719        C  0.47043093  0.53752696  0.50920511     0.01900
C720        C  0.49402181  0.55196668  0.49271700    -0.00500
C721        C  0.52441794  0.52116474  0.48515063    -0.12200
C722        C  0.53129946  0.47669485  0.49344882     0.01800
H723        H  0.45822002  0.48217588  0.52983227     0.14700
H724        H  0.54303267  0.53188894  0.47262325     0.14700
C725        C  0.56502571  0.44853542  0.48556679     0.36400
C726        C  0.43867624  0.56701232  0.51798717     0.36300
N727        N  0.59220398  0.42631978  0.47919040    -0.44000
N728        N  0.41338930  0.59058926  0.52514957    -0.44000
C729        C  0.34690561  0.68486929  0.35773018    -0.00400
C730        C  0.36114168  0.72832459  0.36494436    -0.12200
C731        C  0.38583861  0.73054956  0.38190054     0.01900
C732        C  0.39581046  0.68870144  0.39226029    -0.00500
C733        C  0.38078313  0.64555289  0.38511669    -0.12200
C734        C  0.35696907  0.64321232  0.36810879     0.01800
H735        H  0.35379731  0.76051058  0.35707443     0.14700
H736        H  0.38807922  0.61302300  0.39276005     0.14700
C737        C  0.34264618  0.59733177  0.36192513     0.36400
C738        C  0.39985565  0.77621479  0.38837715     0.36300
N739        N  0.33136687  0.56052780  0.35697067    -0.44000
N740        N  0.41104248  0.81295790  0.39345138    -0.44000
C741        C  0.24822764  0.45581833  0.24139091    -0.00400
C742        C  0.21982862  0.47069945  0.25577394    -0.12200
C743        C  0.22275128  0.51554462  0.26398130     0.01900
C744        C  0.25491412  0.54676839  0.25791164    -0.00500
C745        C  0.28328492  0.53196727  0.24347897    -0.12200
C746        C  0.28032775  0.48707227  0.23525179     0.01800
H747        H  0.19419435  0.44782104  0.26019835     0.14700
H748        H  0.30887197  0.55489474  0.23905631     0.14700
C749        C  0.31144036  0.47383661  0.22096006     0.36400
C750        C  0.19155959  0.52869276  0.27825043     0.36300
N751        N  0.33656556  0.46353855  0.20955790    -0.44000
N752        N  0.16643465  0.53890838  0.28966639    -0.44000
C753        C  0.09822496  0.31855179  0.10872943    -0.00400
C754        C  0.11166370  0.36154872  0.11659802    -0.12200
C755        C  0.13656351  0.36321976  0.13329414     0.01900
C756        C  0.14926937  0.32099647  0.14267234    -0.00500
C757        C  0.13641527  0.27775013  0.13472772    -0.12200
C758        C  0.11084663  0.27616408  0.11803770     0.01800
H759        H  0.10246280  0.39446466  0.10969748     0.14700
H760        H  0.14575217  0.24507645  0.14176426     0.14700
C761        C  0.09903770  0.23057491  0.11062572     0.36400
C762        C  0.14928139  0.40913160  0.14012590     0.36300
N763        N  0.08971253  0.19381962  0.10483906    -0.44000
N764        N  0.15926166  0.44596713  0.14559951    -0.44000
C765        C  0.75118607  0.54657459  0.76060473    -0.00400
C766        C  0.71890022  0.51770679  0.76792767    -0.12200
C767        C  0.71066065  0.47364082  0.75985051     0.01900
C768        C  0.73517211  0.45761182  0.74401167    -0.00500
C769        C  0.76729122  0.48662710  0.73664336    -0.12200
C770        C  0.77556922  0.53060142  0.74473120     0.01800
H771        H  0.70010358  0.52949521  0.78017579     0.14700
H772        H  0.78624460  0.47484594  0.72444473     0.14700
C773        C  0.81047212  0.55723140  0.73687302     0.36400
C774        C  0.67611913  0.44668047  0.76786000     0.36300
N775        N  0.83846087  0.57831501  0.73047859    -0.44000
N776        N  0.64846640  0.42530695  0.77440871    -0.44000
C777        C  0.99708309  0.54549061  0.99165490    -0.00400
C778        C  0.96635567  0.52865750  0.00468427    -0.12200
C779        C  0.96918442  0.48352605  0.01288987     0.01900
C780        C  0.00355045  0.45417675  0.00816182    -0.00500
C781        C  0.03406747  0.47086635  0.99498647    -0.12200
C782        C  0.03119097  0.51600676  0.98676890     0.01800
H783        H  0.93920894  0.55029175  0.00803078     0.14700
H784        H  0.06124268  0.44928474  0.99164115     0.14700
C785        C  0.06444158  0.53167800  0.97392468     0.36400
C786        C  0.93583277  0.46799589  0.02572440     0.36300
N787        N  0.09116893  0.54417597  0.96367587    -0.44000
N788        N  0.90903251  0.45571759  0.03598030    -0.44000
C789        C  0.89696955  0.68705214  0.89417785    -0.00400
C790        C  0.91622412  0.69391629  0.87598933    -0.12200
C791        C  0.89260738  0.69222406  0.85880349     0.01900
C792        C  0.84868262  0.68565802  0.85974796    -0.00500
C793        C  0.82918533  0.68074983  0.87794503    -0.12200
C794        C  0.85298131  0.68036950  0.89507318     0.01800
H795        H  0.94999666  0.69856908  0.87515705     0.14700
H796        H  0.79549816  0.67527961  0.87871812     0.14700
C797        C  0.83154870  0.67269963  0.91337518     0.36400
C798        C  0.91411436  0.69678667  0.84035251     0.36300
N799        N  0.81441271  0.66636713  0.92803409    -0.44000
N800        N  0.93132619  0.70018316  0.82555422    -0.44000
C801        C  0.85287321  0.91776065  0.96713284    -0.00400
C802        C  0.84282363  0.88595577  0.95221096    -0.12200
C803        C  0.85937571  0.84063489  0.95186446     0.01900
C804        C  0.88708696  0.82591804  0.96662966    -0.00500
C805        C  0.89510550  0.85617535  0.98232646    -0.12200
C806        C  0.87808435  0.90185154  0.98276316     0.01800
H807        H  0.82185041  0.89645559  0.94054622     0.14700
H808        H  0.91633897  0.84500396  0.99378102     0.14700
C809        C  0.88827002  0.93176642  0.99899826     0.36400
C810        C  0.84731621  0.81004900  0.93608442     0.36300
N811        N  0.89633937  0.95553228  0.01209945    -0.44000
N812        N  0.83751146  0.78583547  0.92339087    -0.44000
C813        C  0.95537639  0.21630852  0.00682338    -0.00400
C814        C  0.96244855  0.16745772  0.00631383    -0.12200
C815        C  0.93874550  0.13815611  0.99416384     0.01900
C816        C  0.90658352  0.15768977  0.98243136    -0.00500
C817        C  0.90089517  0.20697984  0.98247265    -0.12200
C818        C  0.92469504  0.23613127  0.99451752     0.01800
H819        H  0.98704078  0.15218742  0.01526824     0.14700
H820        H  0.87606344  0.22288087  0.97387364     0.14700
C821        C  0.91515444  0.28592387  0.99486947     0.36400
C822        C  0.94856390  0.08845522  0.99389873     0.36300
N823        N  0.90741006  0.32577580  0.99522383    -0.44000
N824        N  0.95664370  0.04867914  0.99363037    -0.44000
C825        C  0.88014569  0.92421077  0.78724255    -0.00400
C826        C  0.89078644  0.89156241  0.77277683    -0.12200
C827        C  0.87455837  0.84565008  0.77328422     0.01900
C828        C  0.84763802  0.83189517  0.78870651    -0.00500
C829        C  0.83538718  0.86579949  0.80248454    -0.12200
C830        C  0.85082221  0.91167784  0.80169693     0.01800
H831        H  0.91342771  0.90121494  0.76161061     0.14700
H832        H  0.81312254  0.85671559  0.81388153     0.14700
C833        C  0.83550947  0.94557083  0.81565386     0.36400
C834        C  0.88748124  0.81324832  0.75829705     0.36300
N835        N  0.82293706  0.97284386  0.82669193    -0.44000
N836        N  0.89777058  0.78743032  0.74620991    -0.44000
C837        C  0.89341729  0.06825549  0.85891274    -0.00400
C838        C  0.88111477  0.02506044  0.86732210    -0.12200
C839        C  0.85792243  0.02375041  0.88476742     0.01900
C840        C  0.84723258  0.06632583  0.89418200    -0.00500
C841        C  0.86016429  0.10923436  0.88581723    -0.12200
C842        C  0.88288579  0.11061384  0.86846147     0.01800
H843        H  0.88922212  0.99233209  0.86014648     0.14700
H844        H  0.85242206  0.14223353  0.89288699     0.14700
C845        C  0.89623994  0.15616888  0.86120681     0.36400
C846        C  0.84681496  0.97841581  0.89295399     0.36300
N847        N  0.90693034  0.19263968  0.85539866    -0.44000
N848        N  0.83796127  0.94205522  0.89951136    -0.44000
C849        C  0.78947358  0.22093529  0.74629802    -0.00400
C850        C  0.79688349  0.17465936  0.73998731    -0.12200
C851        C  0.82156525  0.14321896  0.75074092     0.01900
C852        C  0.84037278  0.15783943  0.76839782    -0.00500
C853        C  0.83166078  0.20362558  0.77511953    -0.12200
C854        C  0.80642049  0.23494517  0.76441507     0.01800
H855        H  0.78320011  0.16260675  0.72646191     0.14700
H856        H  0.84550491  0.21562994  0.78860801     0.14700
C857        C  0.79956086  0.28142183  0.77229520     0.36400
C858        C  0.82793014  0.09687761  0.74263399     0.36300
N859        N  0.79401825  0.31853675  0.77872546    -0.44000
N860        N  0.83289603  0.05987089  0.73600788    -0.44000
C861        C  0.29542294  0.54217688  0.50809526    -0.00400
C862        C  0.29314303  0.59151585  0.50962140    -0.12200
C863        C  0.31768415  0.62113179  0.49770296     0.01900
C864        C  0.34593202  0.60140292  0.48397808    -0.00500
C865        C  0.34802946  0.55192886  0.48258426    -0.12200
C866        C  0.32358738  0.52252598  0.49448462     0.01800
H867        H  0.27139654  0.60711863  0.51991137     0.14700
H868        H  0.37027819  0.53570992  0.47270014     0.14700
C869        C  0.32996719  0.47222296  0.49318112     0.36400
C870        C  0.31283027  0.67145750  0.49992565     0.36300
N871        N  0.33527671  0.43193916  0.49223125    -0.44000
N872        N  0.30887802  0.71176200  0.50174406    -0.44000
C873        C  0.33208776  0.40628887  0.57762486    -0.00400
C874        C  0.34002671  0.35967118  0.58377746    -0.12200
C875        C  0.38080967  0.34110975  0.58383679     0.01900
C876        C  0.41506223  0.36968033  0.57812553    -0.00500
C877        C  0.40774928  0.41728329  0.57367994    -0.12200
C878        C  0.36698491  0.43566358  0.57309099     0.01800
H879        H  0.31407616  0.33656314  0.58755913     0.14700
H880        H  0.43379353  0.43954200  0.56915973     0.14700
C881        C  0.36246956  0.48371965  0.56629834     0.36400
C882        C  0.38634678  0.29228073  0.58932296     0.36300
N883        N  0.35917534  0.52208184  0.56066496    -0.44000
N884        N  0.39058740  0.25310170  0.59368862    -0.44000
C885        C  0.00392116  0.29491428  0.74376875    -0.00400
C886        C  0.97445473  0.26420623  0.73539675    -0.12200
C887        C  0.96841050  0.21847595  0.74252472     0.01900
C888        C  0.99178559  0.20240454  0.75872634    -0.00500
C889        C  0.02195989  0.23260154  0.76683979    -0.12200
C890        C  0.02835181  0.27823868  0.75957707     0.01800
H891        H  0.95592443  0.27586034  0.72302266     0.14700
H892        H  0.04050828  0.22064027  0.77915328     0.14700
C893        C  0.06087285  0.30620125  0.76849494     0.36400
C894        C  0.93710749  0.18971652  0.73311404     0.36300
N895        N  0.08697920  0.32816184  0.77583320    -0.21600
N896        N  0.91218897  0.16678527  0.72540994    -0.44000
C897        C  0.14430260  0.43637617  0.60827205    -0.00400
C898        C  0.13745045  0.39341439  0.61798245    -0.12200
C899        C  0.11406115  0.39089591  0.63524146     0.01900
C900        C  0.09610613  0.43226159  0.64333739    -0.00500
C901        C  0.10249070  0.47536407  0.63344244    -0.12200
C902        C  0.12642571  0.47776990  0.61616167     0.01800
H903        H  0.15086456  0.36133211  0.61211585     0.14700
H904        H  0.08906418  0.50743121  0.63928509     0.14700
C905        C  0.13071638  0.52281511  0.60646431     0.36400
C906        C  0.10870464  0.34477617  0.64395807     0.36300
N907        N  0.13396653  0.55896231  0.59869976    -0.44000
N908        N  0.10468014  0.30776010  0.65089859    -0.44000
C909        C  0.95508913  0.53678771  0.74681078    -0.00400
C910        C  0.93198329  0.51578036  0.76195131    -0.12200
C911        C  0.90591517  0.54249868  0.77408877     0.01900
C912        C  0.90224640  0.59204265  0.77122667    -0.00500
C913        C  0.92734578  0.61329640  0.75672552    -0.12200
C914        C  0.95363285  0.58640932  0.74468183     0.01800
H915        H  0.93358209  0.47789909  0.76410069     0.14700
H916        H  0.92575025  0.65109654  0.75438979     0.14700
C917        C  0.97959549  0.61099850  0.73065420     0.36400
C918        C  0.88259008  0.51716735  0.78887862     0.36300
N919        N  0.00052266  0.63077172  0.71948559    -0.44000
N920        N  0.86399415  0.49659845  0.80067617    -0.44000
C921        C  0.82667999  0.36504187  0.67498677    -0.00400
C922        C  0.83495857  0.41363478  0.67617528    -0.12200
C923        C  0.87626183  0.43101523  0.67635770     0.01900
C924        C  0.91078330  0.39939103  0.67552923    -0.00500
C925        C  0.90224093  0.35133318  0.67238304    -0.12200
C926        C  0.86094335  0.33410724  0.67199149     0.01800
H927        H  0.80915482  0.43814681  0.67805366     0.14700
H928        H  0.92792847  0.32646269  0.67109394     0.14700
C929        C  0.85489505  0.28431623  0.66872839     0.36400
C930        C  0.88178997  0.48140082  0.67793099     0.36300
N931        N  0.85009164  0.24444308  0.66603354    -0.44000
N932        N  0.88604717  0.52180624  0.67913338    -0.44000
C933        C  0.36169497  0.82815991  0.28528170    -0.00400
C934        C  0.38545570  0.84043263  0.30159913    -0.12200
C935        C  0.40297280  0.88516076  0.30338612     0.01900
C936        C  0.39652172  0.91950853  0.28857670    -0.00500
C937        C  0.37476367  0.90629295  0.27166535    -0.12200
C938        C  0.35736905  0.86103060  0.26990137     0.01800
H939        H  0.38951136  0.81509157  0.31334626     0.14700
H940        H  0.37036625  0.93168958  0.25999324     0.14700
C941        C  0.33339750  0.85027490  0.25268966     0.36400
C942        C  0.42769617  0.89392688  0.32061778     0.36300
N943        N  0.31430250  0.84163158  0.23885673    -0.44000
N944        N  0.44742954  0.90068069  0.33444609    -0.44000
C945        C  0.29315669  0.21481094  0.24490823    -0.00400
C946        C  0.31106299  0.23437337  0.26171218    -0.12200
C947        C  0.33480918  0.20706269  0.27467960     0.01900
C948        C  0.34174829  0.15858163  0.27092661    -0.00500
C949        C  0.32177345  0.13846323  0.25469887    -0.12200
C950        C  0.29783635  0.16581517  0.24177868     0.01800
H951        H  0.30688039  0.27155772  0.26471905     0.14700
H952        H  0.32610692  0.10138377  0.25155805     0.14700
C953        C  0.27806679  0.14211028  0.22567040     0.36400
C954        C  0.35179628  0.23042008  0.29154473     0.36300
N955        N  0.26219485  0.12287966  0.21283118    -0.44000
N956        N  0.36525846  0.24936420  0.30503231    -0.44000
C957        C  0.35260111  0.92361937  0.46564890    -0.00400
C958        C  0.34035752  0.88975177  0.45186860    -0.12200
C959        C  0.35864748  0.84521272  0.45142487     0.01900
C960        C  0.39011696  0.83354696  0.46493367    -0.00500
C961        C  0.40104679  0.86610290  0.47940599    -0.12200
C962        C  0.38252493  0.91100017  0.47989873     0.01800
H963        H  0.31618089  0.89799065  0.44127805     0.14700
H964        H  0.42540777  0.85719647  0.48981215     0.14700
C965        C  0.39619731  0.94382058  0.49454389     0.36400
C966        C  0.34400498  0.81176735  0.43716889     0.36300
N967        N  0.40716335  0.97009272  0.50630692    -0.44000
N968        N  0.33211857  0.78487893  0.42584269    -0.44000
C969        C  0.25371559  0.20946124  0.49404294    -0.00400
C970        C  0.28490151  0.22679935  0.50658318    -0.12200
C971        C  0.28202395  0.27212600  0.51450234     0.01900
C972        C  0.24762608  0.30134209  0.50967497    -0.00500
C973        C  0.21659270  0.28400620  0.49710445    -0.12200
C974        C  0.21904097  0.23848918  0.48949905     0.01800
H975        H  0.31228716  0.20539608  0.50978994     0.14700
H976        H  0.18911900  0.30531030  0.49391309     0.14700
C977        C  0.18436479  0.22172987  0.47793889     0.36400
C978        C  0.31520338  0.28805242  0.52716805     0.36300
N979        N  0.15614682  0.20847704  0.46891588    -0.44000
N980        N  0.34182853  0.30065123  0.53732423    -0.44000
C981        C  0.34705463  0.07118891  0.39470327    -0.00400
C982        C  0.36808182  0.11252220  0.38876811    -0.12200
C983        C  0.39336899  0.11360837  0.37216805     0.01900
C984        C  0.39811984  0.07279756  0.36077911    -0.00500
C985        C  0.37801569  0.03098639  0.36671863    -0.12200
C986        C  0.35248146  0.02982295  0.38348014     0.01800
H987        H  0.36487077  0.14461429  0.39714748     0.14700
H988        H  0.38164324  0.99940063  0.35804636     0.14700
C989        C  0.33317374  0.98558390  0.38890892     0.36400
C990        C  0.41539797  0.15683600  0.36757126     0.36300
N991        N  0.31783455  0.94998786  0.39318733    -0.44000
N992        N  0.43319845  0.19139050  0.36397032    -0.44000
C993        C  0.45040604  0.22177263  0.50762924    -0.00400
C994        C  0.42671637  0.24237101  0.49266363    -0.12200
C995        C  0.40111571  0.21503986  0.48058754     0.01900
C996        C  0.39906705  0.16528573  0.48318665    -0.00500
C997        C  0.42437706  0.14464106  0.49766543    -0.12200
C998        C  0.44969141  0.17212317  0.50980477     0.01800
H999        H  0.42747620  0.28033163  0.49063946     0.14700
H1000       H  0.42366789  0.10678590  0.49994128     0.14700
C1001       C  0.47527072  0.14799715  0.52405538     0.36400
C1002       C  0.37651271  0.23985762  0.46616738     0.36300
N1003       N  0.49565054  0.12836860  0.53542643    -0.44000
N1004       N  0.35675495  0.25995140  0.45469276    -0.44000
C1005       C  0.50204864  0.29929303  0.24269223    -0.00400
C1006       C  0.47181426  0.26882229  0.23477102    -0.12200
C1007       C  0.46396014  0.22438637  0.24298843     0.01900
C1008       C  0.48751091  0.20899317  0.25927868    -0.00500
C1009       C  0.51710805  0.23995742  0.26737269    -0.12200
C1010       C  0.52413625  0.28473364  0.25951691     0.01800
H1011       H  0.45418948  0.27971074  0.22202464     0.14700
H1012       H  0.53488089  0.22934551  0.28011466     0.14700
C1013       C  0.55499059  0.31410172  0.26895111     0.36400
C1014       C  0.43054113  0.19658138  0.23471223     0.36300
N1015       N  0.57949728  0.33758040  0.27666327    -0.44000
N1016       N  0.40358640  0.17476039  0.22797889    -0.44000
C1017       C  0.45149024  0.53439239  0.24430596    -0.00400
C1018       C  0.46035604  0.58264842  0.24615873    -0.12200
C1019       C  0.43625504  0.61139566  0.25840873     0.01900
C1020       C  0.40190081  0.59195559  0.26881058    -0.00500
C1021       C  0.39410789  0.54319365  0.26733707    -0.12200
C1022       C  0.41852694  0.51449324  0.25529312     0.01800
H1023       H  0.48668224  0.59777777  0.23822603     0.14700
H1024       H  0.36751817  0.52758121  0.27489696     0.14700
C1025       C  0.40772753  0.46522462  0.25363327     0.36400
C1026       C  0.44798594  0.66035308  0.26026801     0.36300
N1027       N  0.39902477  0.42577876  0.25222901    -0.44000
N1028       N  0.45753648  0.69951913  0.26183602    -0.44000
C1029       C  0.41811163  0.39159811  0.17235717    -0.00400
C1030       C  0.41101634  0.34286856  0.17403266    -0.12200
C1031       C  0.37024163  0.32427496  0.17407363     0.01900
C1032       C  0.33509571  0.35482726  0.17236676    -0.00500
C1033       C  0.34266843  0.40285922  0.16840526    -0.12200
C1034       C  0.38352794  0.42136052  0.16841698     0.01800
H1035       H  0.43724872  0.31930016  0.17664182     0.14700
H1036       H  0.31649400  0.42683614  0.16642761     0.14700
C1037       C  0.38878688  0.47123389  0.16483412     0.36400
C1038       C  0.36596973  0.27394481  0.17679758     0.36300
N1039       N  0.39288481  0.51120966  0.16193962    -0.44000
N1040       N  0.36288519  0.23360570  0.17901925    -0.44000
C1041       C  0.75994470  0.20658227  0.99410961    -0.00400
C1042       C  0.72789957  0.23531957  0.98653048    -0.12200
C1043       C  0.72048778  0.28035632  0.99380150     0.01900
C1044       C  0.74542474  0.29766343  0.00917191    -0.00500
C1045       C  0.77764976  0.26914800  0.01670991    -0.12200
C1046       C  0.78522227  0.22410502  0.00935224     0.01800
H1047       H  0.70837824  0.22256117  0.97474772     0.14700
H1048       H  0.79686791  0.28199160  0.02858631     0.14700
C1049       C  0.81979486  0.19762308  0.01748280     0.36400
C1050       C  0.68593166  0.30682220  0.98562360     0.36300
N1051       N  0.84752326  0.17667054  0.02411664    -0.44000
N1052       N  0.65827024  0.32773579  0.97891201    -0.44000
C1053       C  0.64658406  0.43829806  0.10793880    -0.00400
C1054       C  0.60325059  0.42868461  0.10760185    -0.12200
C1055       C  0.57916857  0.42962236  0.12470962     0.01900
C1056       C  0.59851522  0.43973706  0.14262000    -0.00500
C1057       C  0.64167736  0.44952024  0.14303462    -0.12200
C1058       C  0.66572365  0.44930741  0.12589524     0.01800
H1059       H  0.58820672  0.41999774  0.09394320     0.14700
H1060       H  0.65673760  0.45665187  0.15684827     0.14700
C1061       C  0.71032859  0.45777002  0.12733559     0.36400
C1062       C  0.53511880  0.41773014  0.12372045     0.36300
N1063       N  0.74609756  0.46443967  0.12845308    -0.44000
N1064       N  0.49985498  0.40802554  0.12299820    -0.44000
C1065       C  0.79839975  0.53489200  0.00731515    -0.00400
C1066       C  0.81714150  0.51576747  0.99058407    -0.12200
C1067       C  0.84288987  0.54308016  0.97836679     0.01900
C1068       C  0.85029252  0.59119239  0.98268353    -0.00500
C1069       C  0.83027421  0.61058034  0.99907677    -0.12200
C1070       C  0.80495952  0.58319744  0.01137349     0.01800
H1071       H  0.81203417  0.47897067  0.98708452     0.14700
H1072       H  0.83530101  0.64726438  0.00276703     0.14700
C1073       C  0.78551119  0.60639339  0.02775560     0.36400
C1074       C  0.86141244  0.52017960  0.96170735     0.36300
N1075       N  0.76991779  0.62518101  0.04081804    -0.44000
N1076       N  0.87623402  0.50161854  0.94840075    -0.44000
C1077       C  0.82855849  0.38746206  0.07847969    -0.00400
C1078       C  0.83596483  0.33929624  0.07538604    -0.12200
C1079       C  0.87687318  0.32109755  0.07493880     0.01900
C1080       C  0.91180010  0.35155904  0.07763254    -0.00500
C1081       C  0.90383296  0.39871381  0.08278103    -0.12200
C1082       C  0.86285234  0.41672041  0.08324710     0.01800
H1083       H  0.80988766  0.31618205  0.07199855     0.14700
H1084       H  0.92977349  0.42247493  0.08554114     0.14700
C1085       C  0.85701165  0.46556614  0.08839046     0.36400
C1086       C  0.88146101  0.27148762  0.07075449     0.36300
N1087       N  0.85233730  0.50465857  0.09260435    -0.44000
N1088       N  0.88481644  0.23172215  0.06739374    -0.44000
C1089       C  0.15076049  0.41065353  0.01975748    -0.00400
C1090       C  0.17155808  0.39140589  0.00352675    -0.12200
C1091       C  0.19681925  0.41917147  0.99128838     0.01900
C1092       C  0.20176293  0.46786487  0.99497957    -0.00500
C1093       C  0.18270856  0.48676133  0.01168707    -0.12200
C1094       C  0.15761601  0.45890512  0.02403706     0.01800
H1095       H  0.16733439  0.35454021  0.99997375     0.14700
H1096       H  0.18714369  0.52370398  0.01507840     0.14700
C1097       C  0.13953741  0.48120708  0.04093744     0.36400
C1098       C  0.21826616  0.39605163  0.97543492     0.36300
N1099       N  0.12520481  0.49918180  0.05449441    -0.44000
N1100       N  0.23552351  0.37735661  0.96280484    -0.44000
C1101       C  0.08498065  0.65169425  0.92191998    -0.00400
C1102       C  0.09336469  0.60446130  0.91706619    -0.12200
C1103       C  0.13453224  0.58691776  0.91697727     0.01900
C1104       C  0.16829754  0.61669864  0.92203582    -0.00500
C1105       C  0.16052026  0.66499899  0.92435987    -0.12200
C1106       C  0.11956564  0.68279956  0.92423886     0.01800
H1107       H  0.06763578  0.58033553  0.91437397     0.14700
H1108       H  0.18628570  0.68865391  0.92767582     0.14700
C1109       C  0.11452800  0.73273732  0.92759176     0.36400
C1110       C  0.14114852  0.53818629  0.91184578     0.36300
N1111       N  0.11075878  0.77274776  0.93031565    -0.44000
N1112       N  0.14641352  0.49924722  0.90753685    -0.44000
C1113       C  0.39914798  0.57132093  0.85967247    -0.00400
C1114       C  0.38534734  0.52841972  0.86779063    -0.12200
C1115       C  0.36078322  0.52756312  0.88480273     0.01900
C1116       C  0.35011645  0.57032988  0.89407487    -0.00500
C1117       C  0.36484050  0.61293528  0.88614748    -0.12200
C1118       C  0.38906219  0.61387907  0.86923489     0.01800
H1119       H  0.39323504  0.49553257  0.86067872     0.14700
H1120       H  0.35723727  0.64602443  0.89318510     0.14700
C1121       C  0.40416399  0.65918228  0.86246301     0.36400
C1122       C  0.34825932  0.48240550  0.89270820     0.36300
N1123       N  0.41620862  0.69552022  0.85710401    -0.44000
N1124       N  0.33838748  0.44611784  0.89901276    -0.44000
C1125       C  0.53689307  0.46648945  0.75651130    -0.00400
C1126       C  0.53331237  0.41723658  0.75769530    -0.12200
C1127       C  0.55735741  0.38787528  0.74569808     0.01900
C1128       C  0.58636326  0.40786173  0.73230678    -0.00500
C1129       C  0.58830014  0.45733984  0.73060427    -0.12200
C1130       C  0.56417087  0.48653716  0.74253149     0.01800
H1131       H  0.51132547  0.40158147  0.76794720     0.14700
H1132       H  0.61045195  0.47367526  0.72062940     0.14700
C1133       C  0.56997751  0.53694031  0.74087202     0.36400
C1134       C  0.55148532  0.33755847  0.74761347     0.36300
N1135       N  0.57468466  0.57730110  0.73957404    -0.44000
N1136       N  0.54662575  0.29727189  0.74919085    -0.44000
C1137       C  0.58154219  0.60009863  0.82947898    -0.00400
C1138       C  0.58948719  0.64816240  0.83280914    -0.12200
C1139       C  0.63048679  0.66575397  0.83349547     0.01900
C1140       C  0.66497107  0.63513047  0.83064527    -0.00500
C1141       C  0.65728621  0.58637333  0.82969674    -0.12200
C1142       C  0.61613390  0.56862365  0.82925326     0.01800
H1143       H  0.56359766  0.67287608  0.83380650     0.14700
H1144       H  0.68338398  0.56211743  0.82811003     0.14700
C1145       C  0.61071158  0.51815004  0.82816822     0.36400
C1146       C  0.63597355  0.71570504  0.83659107     0.36300
N1147       N  0.60652714  0.47766141  0.82744321    -0.44000
N1148       N  0.64031080  0.75572297  0.83908681    -0.44000
C1149       C  0.63269012  0.08008428  0.53810907    -0.00400
C1150       C  0.63657095  0.10943718  0.52164309    -0.12200
C1151       C  0.61932714  0.15503874  0.52145506     0.01900
C1152       C  0.59829373  0.17215200  0.53818027    -0.00500
C1153       C  0.59287548  0.14149702  0.55417420    -0.12200
C1154       C  0.60914041  0.09600412  0.55418061     0.01800
H1155       H  0.65444251  0.09743364  0.50915695     0.14700
H1156       H  0.57523730  0.15270816  0.56685446     0.14700
C1157       C  0.60037636  0.06620949  0.57084536     0.36400
C1158       C  0.62442536  0.18327089  0.50406040     0.36300
N1159       N  0.59307789  0.04245957  0.58417999    -0.44000
N1160       N  0.62834114  0.20563437  0.49002821    -0.44000
C1161       C  0.59561545  0.84589896  0.51743310    -0.00400
C1162       C  0.59885607  0.79642835  0.51858595    -0.12200
C1163       C  0.57610053  0.76718945  0.50613374     0.01900
C1164       C  0.54920898  0.78715551  0.49202630    -0.00500
C1165       C  0.54526728  0.83636511  0.49097720    -0.12200
C1166       C  0.56770010  0.86574772  0.50355617     0.01800
H1167       H  0.62044725  0.78023059  0.52879606     0.14700
H1168       H  0.52364283  0.85196588  0.48061017     0.14700
C1169       C  0.56081698  0.91594728  0.50185380     0.36400
C1170       C  0.58216017  0.71682728  0.50773149     0.36300
N1171       N  0.55506292  0.95610898  0.50041140    -0.44000
N1172       N  0.58704294  0.67649859  0.50903492    -0.44000
C1173       C  0.63536702  0.17468359  0.71689135    -0.00400
C1174       C  0.64778133  0.14186154  0.73117660    -0.12200
C1175       C  0.63149688  0.09585305  0.73131142     0.01900
C1176       C  0.60221805  0.08257028  0.71696603    -0.00500
C1177       C  0.58846516  0.11651771  0.70338205    -0.12200
C1178       C  0.60470770  0.16204222  0.70321431     0.01800
H1179       H  0.67176672  0.15146270  0.74162720     0.14700
H1180       H  0.56479093  0.10747077  0.69269257     0.14700
C1181       C  0.58923594  0.19527937  0.68890643     0.36400
C1182       C  0.64707478  0.06253414  0.74551380     0.36300
N1183       N  0.57681332  0.22191963  0.67747409    -0.44000
N1184       N  0.65966976  0.03581045  0.75687531    -0.44000
C1185       C  0.50152344  0.79687268  0.74450005    -0.00400
C1186       C  0.53268541  0.77819333  0.75676789    -0.12200
C1187       C  0.52931013  0.73246193  0.76436552     0.01900
C1188       C  0.49394632  0.70455144  0.75981188    -0.00500
C1189       C  0.46290453  0.72321526  0.74747979    -0.12200
C1190       C  0.46633362  0.76884363  0.73985148     0.01800
H1191       H  0.56059818  0.79871479  0.75986158     0.14700
H1192       H  0.43497911  0.70276407  0.74433977     0.14700
C1193       C  0.43269186  0.78635652  0.72772689     0.36400
C1194       C  0.56319129  0.71469493  0.77628594     0.36300
N1195       N  0.40567910  0.80026601  0.71803134    -0.44000
N1196       N  0.59045890  0.70057252  0.78577712    -0.44000
C1197       C  0.59728213  0.93366098  0.64466247    -0.00400
C1198       C  0.60636104  0.89088302  0.63540137    -0.12200
C1199       C  0.62964703  0.88948464  0.61812723     0.01900
C1200       C  0.64503606  0.93174272  0.60961805    -0.00500
C1201       C  0.63688388  0.97460816  0.61913756    -0.12200
C1202       C  0.61291181  0.97596335  0.63637706     0.01800
H1203       H  0.59491870  0.85807608  0.64165543     0.14700
H1204       H  0.64886513  0.00725356  0.61299541     0.14700
C1205       C  0.60611254  0.02095883  0.64558218     0.36400
C1206       C  0.63823520  0.84372039  0.60988623     0.36300
N1207       N  0.60071253  0.05703456  0.65296261    -0.44000
N1208       N  0.64504965  0.80705199  0.60328923    -0.44000
C1209       C  0.69949271  0.78323512  0.75936270    -0.00400
C1210       C  0.67672052  0.76285248  0.74411163    -0.12200
C1211       C  0.65106134  0.79018429  0.73188965     0.01900
C1212       C  0.64819450  0.83976004  0.73452952    -0.00500
C1213       C  0.67241680  0.86018567  0.74937675    -0.12200
C1214       C  0.69750514  0.83269274  0.76175307     0.01800
H1215       H  0.67828595  0.72505680  0.74195026     0.14700
H1216       H  0.67095100  0.89787860  0.75178950     0.14700
C1217       C  0.72128230  0.85672570  0.77655415     0.36400
C1218       C  0.62729283  0.76554245  0.71725311     0.36300
N1219       N  0.73998000  0.87647524  0.78839598    -0.44000
N1220       N  0.60820372  0.74550049  0.70562158    -0.44000
C1221       C  0.75229708  0.70975019  0.49377176    -0.00400
C1222       C  0.78287311  0.72843734  0.50624036    -0.12200
C1223       C  0.77850838  0.77364599  0.51402787     0.01900
C1224       C  0.74290738  0.80118061  0.50934911    -0.00500
C1225       C  0.71224274  0.78239325  0.49694355    -0.12200
C1226       C  0.71649623  0.73705823  0.48924911     0.01800
H1227       H  0.81107443  0.70833000  0.50937606     0.14700
H1228       H  0.68399308  0.80244490  0.49385538     0.14700
C1229       C  0.68301360  0.71876157  0.47731221     0.36400
C1230       C  0.81161411  0.79138326  0.52632037     0.36300
N1231       N  0.65617372  0.70395124  0.46780785    -0.44000
N1232       N  0.83824978  0.80551309  0.53611445    -0.44000
C1233       C  0.70223391  0.47140150  0.49596000    -0.00400
C1234       C  0.70459127  0.42218190  0.49399870    -0.12200
C1235       C  0.68043853  0.39188271  0.50575097     0.01900
C1236       C  0.65250760  0.41072752  0.51979020    -0.00500
C1237       C  0.65122058  0.46011781  0.52204435    -0.12200
C1238       C  0.67544598  0.49027483  0.51033236     0.01800
H1239       H  0.72588289  0.40717829  0.48335325     0.14700
H1240       H  0.62968092  0.47573643  0.53241135     0.14700
C1241       C  0.67031288  0.54054184  0.51267492     0.36400
C1242       C  0.68508939  0.34175719  0.50290325     0.36300
N1243       N  0.66610065  0.58080439  0.51450657    -0.44000
N1244       N  0.68890886  0.30160355  0.50058293    -0.44000
C1245       C  0.66344831  0.60842530  0.42399836    -0.00400
C1246       C  0.65543195  0.65541209  0.41834511    -0.12200
C1247       C  0.61427212  0.67302355  0.41726930     0.01900
C1248       C  0.57987370  0.64353028  0.42197183    -0.00500
C1249       C  0.58757660  0.59553516  0.42554524    -0.12200
C1250       C  0.62854197  0.57778070  0.42662262     0.01800
H1251       H  0.68139649  0.67929197  0.41561294     0.14700
H1252       H  0.56155082  0.57214699  0.42889709     0.14700
C1253       C  0.63308205  0.52845030  0.43156112     0.36400
C1254       C  0.60836674  0.72159953  0.41149724     0.36300
N1255       N  0.63642500  0.48894775  0.43559064    -0.44000
N1256       N  0.60371767  0.76045424  0.40673583    -0.44000
C1257       C  0.89751297  0.57051994  0.35884856    -0.00400
C1258       C  0.87980735  0.61302910  0.36541918    -0.12200
C1259       C  0.85515642  0.61486008  0.38227925     0.01900
C1260       C  0.84763962  0.57350131  0.39332119    -0.00500
C1261       C  0.86429906  0.53060610  0.38660861    -0.12200
C1262       C  0.88906365  0.52875100  0.36958748     0.01800
H1263       H  0.88526620  0.64546531  0.35733703     0.14700
H1264       H  0.85843514  0.49847532  0.39483560     0.14700
C1265       C  0.90410588  0.48337860  0.36320844     0.36400
C1266       C  0.83657833  0.65957620  0.38743789     0.36300
N1267       N  0.91597386  0.44693261  0.35807468    -0.44000
N1268       N  0.82156394  0.69537480  0.39147813    -0.44000
C1269       C  0.04848899  0.46818974  0.25795096    -0.00400
C1270       C  0.07272105  0.48982719  0.24329252    -0.12200
C1271       C  0.09835762  0.46334823  0.23078377     0.01900
C1272       C  0.10026447  0.41349675  0.23270806    -0.00500
C1273       C  0.07460746  0.39189628  0.24692596    -0.12200
C1274       C  0.04899016  0.41845193  0.25937804     0.01800
H1275       H  0.07199380  0.52790674  0.24170916     0.14700
H1276       H  0.07496957  0.35386763  0.24864027     0.14700
C1277       C  0.02242583  0.39329000  0.27296163     0.36400
C1278       C  0.12268714  0.48889391  0.21642346     0.36300
N1279       N  0.00119500  0.37265055  0.28372239    -0.44000
N1280       N  0.14208458  0.50949175  0.20491640    -0.44000
C1281       C  0.08237167  0.61140636  0.32988839    -0.00400
C1282       C  0.08976482  0.66022310  0.32930517    -0.12200
C1283       C  0.13064244  0.67828926  0.32852342     0.01900
C1284       C  0.16541905  0.64709811  0.32834382    -0.00500
C1285       C  0.15794437  0.59879263  0.33161500    -0.12200
C1286       C  0.11700912  0.58079494  0.33241539     0.01800
H1287       H  0.06356631  0.68447721  0.32797419     0.14700
H1288       H  0.18408244  0.57432643  0.33232796     0.14700
C1289       C  0.11173266  0.53063594  0.33524437     0.36400
C1290       C  0.13538529  0.72882591  0.32692259     0.36300
N1291       N  0.10762459  0.49044510  0.33755474    -0.44000
N1292       N  0.13892250  0.76932322  0.32555059    -0.44000
C1293       C  0.10167906  0.08407805  0.21294853    -0.00400
C1294       C  0.12580140  0.09694644  0.22921168    -0.12200
C1295       C  0.14423017  0.14189220  0.23040803     0.01900
C1296       C  0.13795202  0.17510379  0.21527658    -0.00500
C1297       C  0.11251781  0.16296166  0.19953030    -0.12200
C1298       C  0.09464126  0.11834211  0.19811575     0.01800
H1299       H  0.13131961  0.07148042  0.24074321     0.14700
H1300       H  0.10749577  0.18829912  0.18786839     0.14700
C1301       C  0.06943740  0.10954755  0.18103778     0.36400
C1302       C  0.17156632  0.15176629  0.24660975     0.36300
N1303       N  0.04956922  0.10276454  0.16725397    -0.44000
N1304       N  0.19359241  0.15955617  0.25956867    -0.44000
C1305       C  0.00576285  0.79695857  0.24311911    -0.00400
C1306       C  0.03727151  0.77793334  0.25508595    -0.12200
C1307       C  0.03336064  0.73258075  0.26302340     0.01900
C1308       C  0.99724531  0.70541664  0.25907335    -0.00500
C1309       C  0.96581292  0.72439491  0.24708060    -0.12200
C1310       C  0.96964046  0.76972474  0.23918192     0.01800
H1311       H  0.06579916  0.79783981  0.25766821     0.14700
H1312       H  0.93728888  0.70446304  0.24448375     0.14700
C1313       C  0.93530979  0.78798121  0.22768877     0.36400
C1314       C  0.06755981  0.71410336  0.27451432     0.36300
N1315       N  0.90760350  0.80251698  0.21859428    -0.44000
N1316       N  0.09521472  0.69930935  0.28356571    -0.44000
C1317       C  0.15323081  0.84285331  0.23052351    -0.00400
C1318       C  0.14833755  0.79342177  0.23061159    -0.12200
C1319       C  0.17315633  0.76430894  0.24244068     0.01900
C1320       C  0.20374981  0.78435610  0.25465700    -0.00500
C1321       C  0.20978913  0.83338873  0.25417969    -0.12200
C1322       C  0.18537815  0.86258957  0.24213719     0.01800
H1323       H  0.12365756  0.77729305  0.22207971     0.14700
H1324       H  0.23416715  0.84893812  0.26308979     0.14700
C1325       C  0.19444581  0.91247888  0.24194485     0.36400
C1326       C  0.16488817  0.71422811  0.24259364     0.36300
N1327       N  0.20189629  0.95242127  0.24176747    -0.44000
N1328       N  0.15809852  0.67413997  0.24274871    -0.44000
C1329       C  0.14015021  0.07915864  0.03528140    -0.00400
C1330       C  0.10947782  0.08881336  0.04926598    -0.12200
C1331       C  0.09019249  0.13277149  0.05000558     0.01900
C1332       C  0.10289250  0.16908848  0.03699779    -0.00500
C1333       C  0.13212543  0.15872594  0.02231321    -0.12200
C1334       C  0.15067174  0.11395077  0.02128481     0.01800
H1335       H  0.10067969  0.06178611  0.05976854     0.14700
H1336       H  0.14127698  0.18590177  0.01196652     0.14700
C1337       C  0.18170143  0.10544441  0.00635795     0.36400
C1338       C  0.05631219  0.13869048  0.06382733     0.36300
N1339       N  0.20632455  0.09872514  0.99427299    -0.44000
N1340       N  0.02896588  0.14319984  0.07478793    -0.44000
C1341       C  0.25348957  0.70486770  0.99388095    -0.00400
C1342       C  0.22528457  0.73692445  0.98530079    -0.12200
C1343       C  0.21967906  0.78215311  0.99275897     0.01900
C1344       C  0.24302325  0.79653877  0.00919454    -0.00500
C1345       C  0.27050773  0.76410857  0.01801537    -0.12200
C1346       C  0.27554906  0.71861897  0.01075582     0.01800
H1347       H  0.20768548  0.72682199  0.97247542     0.14700
H1348       H  0.28794585  0.77407783  0.03090671     0.14700
C1349       C  0.30391879  0.68748639  0.02098243     0.36400
C1350       C  0.18872328  0.81194885  0.98347897     0.36300
N1351       N  0.32631826  0.66267663  0.02943854    -0.44000
N1352       N  0.16377510  0.83549399  0.97599290    -0.44000
C1353       C  0.14502025  0.93397179  0.10771932    -0.00400
C1354       C  0.12229943  0.89337640  0.11321225    -0.12200
C1355       C  0.09730258  0.89244697  0.12994768     0.01900
C1356       C  0.09399777  0.93286340  0.14168857    -0.00500
C1357       C  0.11556435  0.97397079  0.13613457    -0.12200
C1358       C  0.14127707  0.97479077  0.11944476     0.01800
H1359       H  0.12431292  0.86166574  0.10452835     0.14700
H1360       H  0.11335581  0.00506690  0.14519341     0.14700
C1361       C  0.16332239  0.01794605  0.11487546     0.36400
C1362       C  0.07471101  0.84959921  0.13458372     0.36300
N1363       N  0.18111992  0.05251816  0.11128990    -0.44000
N1364       N  0.05659228  0.81532705  0.13831111    -0.44000
C1365       C  0.09769122  0.84347997  0.01784463    -0.00400
C1366       C  0.10317294  0.79415290  0.01778000    -0.12200
C1367       C  0.07883900  0.76503158  0.00590546     0.01900
C1368       C  0.04782558  0.78491422  0.99377914    -0.00500
C1369       C  0.04167170  0.83394059  0.99397778    -0.12200
C1370       C  0.06600006  0.86321943  0.00587263     0.01800
H1371       H  0.12793320  0.77816997  0.02638269     0.14700
H1372       H  0.01723262  0.84940396  0.98501458     0.14700
C1373       C  0.05728546  0.91318637  0.00554695     0.36400
C1374       C  0.08797184  0.71514457  0.00563209     0.36300
N1375       N  0.05017825  0.95320297  0.00525326    -0.44000
N1376       N  0.09541420  0.67521577  0.00533557    -0.44000
C1377       C  0.13163725  0.57865994  0.53403480    -0.00400
C1378       C  0.10051835  0.58709185  0.54798207    -0.12200
C1379       C  0.08147011  0.63112623  0.54941746     0.01900
C1380       C  0.09437911  0.66843593  0.53695388    -0.00500
C1381       C  0.12346282  0.65905526  0.52207961    -0.12200
C1382       C  0.14211223  0.61446599  0.52049904     0.01800
H1383       H  0.09185648  0.55934386  0.55818489     0.14700
H1384       H  0.13278518  0.68701436  0.51212464     0.14700
C1385       C  0.17364583  0.60739882  0.50567388     0.36400
C1386       C  0.04835840  0.63644331  0.56367472     0.36300
N1387       N  0.19867929  0.60188605  0.49366524    -0.44000
N1388       N  0.02178507  0.64051804  0.57506631    -0.44000
C1389       C  0.15243483  0.90750404  0.52034891    -0.00400
C1390       C  0.15550782  0.95587313  0.52473023    -0.12200
C1391       C  0.17989365  0.98672370  0.51338775     0.01900
C1392       C  0.20224088  0.96958364  0.49709943    -0.00500
C1393       C  0.20069438  0.92104767  0.49315077    -0.12200
C1394       C  0.17658071  0.89003471  0.50457676     0.01800
H1395       H  0.13741428  0.97037852  0.53666822     0.14700
H1396       H  0.21874991  0.90703103  0.48108887     0.14700
C1397       C  0.17715337  0.84073345  0.49942980     0.36400
C1398       C  0.17964049  0.03612764  0.51837082     0.36300
N1399       N  0.17783767  0.80127422  0.49524054    -0.44000
N1400       N  0.17935422  0.07566987  0.52242984    -0.44000
C1401       C  0.90128671  0.66415580  0.48288937    -0.00400
C1402       C  0.89808414  0.71362694  0.48170093    -0.12200
C1403       C  0.92185341  0.74295243  0.49375505     0.01900
C1404       C  0.94908501  0.72301891  0.50773654    -0.00500
C1405       C  0.95382640  0.67383187  0.50839933    -0.12200
C1406       C  0.93103436  0.64446147  0.49593122     0.01800
H1407       H  0.87564013  0.72973447  0.47184655     0.14700
H1408       H  0.97628301  0.65826797  0.51841577     0.14700
C1409       C  0.93966252  0.59447545  0.49664270     0.36400
C1410       C  0.91652155  0.79334752  0.49190864     0.36300
N1411       N  0.94695194  0.55450736  0.49714141    -0.44000
N1412       N  0.91241868  0.83373090  0.49033626    -0.44000
C1413       C  0.91373467  0.86531486  0.57897092    -0.00400
C1414       C  0.88091925  0.83291555  0.58213257    -0.12200
C1415       C  0.83874407  0.84732522  0.58234894     0.01900
C1416       C  0.82843522  0.89530466  0.57898036    -0.00500
C1417       C  0.86149636  0.92813905  0.57765007    -0.12200
C1418       C  0.90359143  0.91383772  0.57766367     0.01800
H1419       H  0.88809197  0.79568928  0.58365113     0.14700
H1420       H  0.85456263  0.96526284  0.57556479     0.14700
C1421       C  0.93518324  0.94984649  0.57491494     0.36400
C1422       C  0.80706294  0.81145741  0.58513818     0.36300
N1423       N  0.96031310  0.97891740  0.57277025    -0.44000
N1424       N  0.78176851  0.78263533  0.58744353    -0.44000
C1425       C  0.14543656  0.66833173  0.71630413    -0.00400
C1426       C  0.15544351  0.63624278  0.70144155    -0.12200
C1427       C  0.13902617  0.59077486  0.70136737     0.01900
C1428       C  0.11156212  0.57633355  0.71633621    -0.00500
C1429       C  0.10314944  0.60714665  0.73181281    -0.12200
C1430       C  0.11974357  0.65299520  0.73191062     0.01800
H1431       H  0.17642232  0.64657279  0.68970606     0.14700
H1432       H  0.08174823  0.59630867  0.74330304     0.14700
C1433       C  0.10798421  0.68401136  0.74758338     0.36400
C1434       C  0.15103214  0.55956680  0.68574706     0.36300
N1435       N  0.09843762  0.70883860  0.76014559    -0.44000
N1436       N  0.16065409  0.53457463  0.67325236    -0.44000
C1437       C  0.14561726  0.82141052  0.64452704    -0.00400
C1438       C  0.13542612  0.77802943  0.63586079    -0.12200
C1439       C  0.11073607  0.77617142  0.61887543     0.01900
C1440       C  0.09614602  0.81836926  0.61014887    -0.00500
C1441       C  0.10676162  0.86148911  0.61875422    -0.12200
C1442       C  0.13102532  0.86347150  0.63562590     0.01800
H1443       H  0.14640712  0.74548312  0.64246139     0.14700
H1444       H  0.09604803  0.89423059  0.61218906     0.14700
C1445       C  0.14153558  0.90960972  0.64299760     0.36400
C1446       C  0.10236838  0.73080204  0.61031992     0.36300
N1447       N  0.14987540  0.94660123  0.64886445    -0.44000
N1448       N  0.09588513  0.69433267  0.60348918    -0.44000
C1449       C  0.08926074  0.90356170  0.73392234    -0.00400
C1450       C  0.07442670  0.88683426  0.75198864    -0.12200
C1451       C  0.04882532  0.91462149  0.76391469     0.01900
C1452       C  0.03752180  0.96083900  0.75792649    -0.00500
C1453       C  0.05035602  0.97636114  0.73933679    -0.12200
C1454       C  0.07559344  0.94831006  0.72734997     0.01800
H1455       H  0.08417301  0.85247237  0.75727674     0.14700
H1456       H  0.04097112  0.01087370  0.73408914     0.14700
C1457       C  0.08669698  0.96653855  0.70835208     0.36400
C1458       C  0.03481168  0.89414127  0.78211319     0.36300
N1459       N  0.09545276  0.98114221  0.69311090    -0.44000
N1460       N  0.02363032  0.87743564  0.79663902    -0.44000
C1461       C  0.29401511  0.72062846  0.74613851    -0.00400
C1462       C  0.31755058  0.74185395  0.76097125    -0.12200
C1463       C  0.34325125  0.71499143  0.77335350     0.01900
C1464       C  0.34569745  0.66534549  0.77109020    -0.00500
C1465       C  0.32044946  0.64418138  0.75680735    -0.12200
C1466       C  0.29501350  0.67103479  0.74443387     0.01800
H1467       H  0.31631016  0.77978908  0.76275048     0.14700
H1468       H  0.32124317  0.60629563  0.75485136     0.14700
C1469       C  0.26948955  0.64621757  0.73049754     0.36400
C1470       C  0.36690559  0.73985684  0.78797119     0.36300
N1471       N  0.24920661  0.62591311  0.71939737    -0.44000
N1472       N  0.38573374  0.75998810  0.79966921    -0.44000
C1473       C  0.32847220  0.86446562  0.67491458    -0.00400
C1474       C  0.33629184  0.91298099  0.67659208    -0.12200
C1475       C  0.37735181  0.93067213  0.67716010     0.01900
C1476       C  0.41207772  0.89946518  0.67567319    -0.00500
C1477       C  0.40396017  0.85163676  0.67185400    -0.12200
C1478       C  0.36285943  0.83397290  0.67154296     0.01800
H1479       H  0.31031355  0.93704139  0.67895096     0.14700
H1480       H  0.42984930  0.82714384  0.67019393     0.14700
C1481       C  0.35720796  0.78413065  0.66825835     0.36400
C1482       C  0.38225267  0.98062134  0.68052045     0.36300
N1483       N  0.35279616  0.74417169  0.66563479    -0.44000
N1484       N  0.38589294  0.02056696  0.68342615    -0.44000
C1485       C  0.38657074  0.32858070  0.96386265    -0.00400
C1486       C  0.39678515  0.36044973  0.97870035    -0.12200
C1487       C  0.37997345  0.40618002  0.97880230     0.01900
C1488       C  0.35188615  0.42017954  0.96396681    -0.00500
C1489       C  0.34046722  0.38717078  0.94968426    -0.12200
C1490       C  0.35746658  0.34196862  0.94949606     0.01800
H1491       H  0.41959027  0.35042969  0.98966031     0.14700
H1492       H  0.31789145  0.39650848  0.93852547     0.14700
C1493       C  0.34402097  0.30977092  0.93451916     0.36400
C1494       C  0.39383599  0.43841282  0.99363654     0.36300
N1495       N  0.33312876  0.28398896  0.92255851    -0.44000
N1496       N  0.40511668  0.46424711  0.00550118    -0.44000
C1497       C  0.54279155  0.28803714  0.99349134    -0.00400
C1498       C  0.56717285  0.26693067  0.00808261    -0.12200
C1499       C  0.59337380  0.29373163  0.02003921     0.01900
C1500       C  0.59530349  0.34358071  0.01777539    -0.00500
C1501       C  0.56944553  0.36478826  0.00362240    -0.12200
C1502       C  0.54351281  0.33772392  0.99155237     0.01800
H1503       H  0.56659149  0.22889531  0.00986200     0.14700
H1504       H  0.57017593  0.40271850  0.00158215     0.14700
C1505       C  0.51740965  0.36216347  0.97760241     0.36400
C1506       C  0.61917229  0.26812839  0.03376112     0.36300
N1507       N  0.49656796  0.38187742  0.96643618    -0.44000
N1508       N  0.63988996  0.24734530  0.04464659    -0.44000
C1509       C  0.66693160  0.10929250  0.92583362    -0.00400
C1510       C  0.65952499  0.15811689  0.92494968    -0.12200
C1511       C  0.61864643  0.17632874  0.92427992     0.01900
C1512       C  0.58367505  0.14536928  0.92437710    -0.00500
C1513       C  0.59131642  0.09657552  0.92335933    -0.12200
C1514       C  0.63221326  0.07839010  0.92411083     0.01800
H1515       H  0.68567145  0.18249814  0.92591668     0.14700
H1516       H  0.56516011  0.07210363  0.92307581     0.14700
C1517       C  0.63718687  0.02778308  0.92360765     0.36400
C1518       C  0.61397913  0.22699099  0.92422817     0.36300
N1519       N  0.64105311  0.98722431  0.92322550    -0.44000
N1520       N  0.61045028  0.26760364  0.92424738    -0.44000
C1521       C  0.29587426  0.03683711  0.00708741    -0.00400
C1522       C  0.31229813  0.01878730  0.98962118    -0.12200
C1523       C  0.33669394  0.04669024  0.97705639     0.01900
C1524       C  0.34553199  0.09414630  0.98185378    -0.00500
C1525       C  0.32729882  0.11281677  0.99882696    -0.12200
C1526       C  0.30303865  0.08491850  0.01141356     0.01800
H1527       H  0.30633834  0.98241727  0.98574077     0.14700
H1528       H  0.33331928  0.14909504  0.00281901     0.14700
C1529       C  0.28557195  0.10731370  0.02844380     0.36400
C1530       C  0.35207867  0.02523183  0.95941232     0.36300
N1531       N  0.27157693  0.12548522  0.04203115    -0.44000
N1532       N  0.36427152  0.00786867  0.94528472    -0.44000
C1533       C  0.34525924  0.33425480  0.78795550    -0.00400
C1534       C  0.33627819  0.36619140  0.80304625    -0.12200
C1535       C  0.35241541  0.41191722  0.80293490     0.01900
C1536       C  0.37878002  0.42683457  0.78760007    -0.00500
C1537       C  0.38581415  0.39635861  0.77187138    -0.12200
C1538       C  0.36916790  0.35045036  0.77185412     0.01800
H1539       H  0.31632346  0.35558028  0.81511598     0.14700
H1540       H  0.40606153  0.40760133  0.75999401     0.14700
C1541       C  0.37845791  0.32059018  0.75547386     0.36400
C1542       C  0.34099364  0.44304529  0.81867174     0.36300
N1543       N  0.38584457  0.29685828  0.74225976    -0.44000
N1544       N  0.33160825  0.46799986  0.83121629    -0.44000
C1545       C  0.24751992  0.04788453  0.75938843    -0.00400
C1546       C  0.27901001  0.02823670  0.74765179    -0.12200
C1547       C  0.27508692  0.98253375  0.74042774     0.01900
C1548       C  0.23860846  0.95595983  0.74452164    -0.00500
C1549       C  0.20700088  0.97560033  0.75620917    -0.12200
C1550       C  0.21120137  0.02108302  0.76371815     0.01800
H1551       H  0.30778987  0.04772062  0.74492031     0.14700
H1552       H  0.17833641  0.95594157  0.75899302     0.14700
C1553       C  0.17747216  0.03968066  0.77550652     0.36400
C1554       C  0.30990627  0.96275006  0.72975869     0.36300
N1555       N  0.15041150  0.05446493  0.78494653    -0.44000
N1556       N  0.33805123  0.94663622  0.72146343    -0.44000
C1557       C  0.34600534  0.17914623  0.85890258    -0.00400
C1558       C  0.36371573  0.22200024  0.86494084    -0.12200
C1559       C  0.38980493  0.22403995  0.88141159     0.01900
C1560       C  0.39798712  0.18257120  0.89236598    -0.00500
C1561       C  0.37980705  0.13994132  0.88622893    -0.12200
C1562       C  0.35422290  0.13788016  0.86979507     0.01800
H1563       H  0.35771901  0.25383685  0.85657705     0.14700
H1564       H  0.38548408  0.10765440  0.89434198     0.14700
C1565       C  0.33554822  0.09305665  0.86488244     0.36400
C1566       C  0.40684437  0.26923715  0.88683067     0.36300
N1567       N  0.32053285  0.05718454  0.86098346    -0.44000
N1568       N  0.42041369  0.30558864  0.89108721    -0.44000
C1569       C  0.14840308  0.34070934  0.73326758    -0.00400
C1570       C  0.16891725  0.36049894  0.74941824    -0.12200
C1571       C  0.19260918  0.33282286  0.76224056     0.01900
C1572       C  0.19715990  0.28395365  0.75887982    -0.00500
C1573       C  0.17808126  0.26439251  0.74237374    -0.12200
C1574       C  0.15384385  0.29191885  0.72968606     0.01800
H1575       H  0.16519885  0.39764540  0.75260288     0.14700
H1576       H  0.18174568  0.22710261  0.73942555     0.14700
C1577       C  0.13467546  0.26848266  0.71335753     0.36400
C1578       C  0.21203551  0.35603504  0.77857624     0.36300
N1579       N  0.11931231  0.24946739  0.70033213    -0.44000
N1580       N  0.22734960  0.37477605  0.79168327    -0.44000
C1581       C  0.16013188  0.13884225  0.82909638    -0.00400
C1582       C  0.12712805  0.17150526  0.82706599    -0.12200
C1583       C  0.08511471  0.15712595  0.82659782     0.01900
C1584       C  0.07490981  0.10866406  0.82815202    -0.00500
C1585       C  0.10746427  0.07640859  0.83195082    -0.12200
C1586       C  0.14961587  0.09097214  0.83269126     0.01800
H1587       H  0.13410171  0.20855584  0.82476510     0.14700
H1588       H  0.10012686  0.03927390  0.83369541     0.14700
C1589       C  0.18109344  0.05548734  0.83649643     0.36400
C1590       C  0.05375619  0.19296281  0.82305035     0.36300
N1591       N  0.20615474  0.02693310  0.83968176    -0.44000
N1592       N  0.02878836  0.22185817  0.82025842    -0.44000
C1593       C  0.39751511  0.09250127  0.76937149    -0.00400
C1594       C  0.39251340  0.04309013  0.76905342    -0.12200
C1595       C  0.41851999  0.01434700  0.75769316     0.01900
C1596       C  0.45039975  0.03472413  0.74612101    -0.00500
C1597       C  0.45613349  0.08382029  0.74661031    -0.12200
C1598       C  0.43047491  0.11266785  0.75819471     0.01800
H1599       H  0.36710874  0.02668028  0.77716219     0.14700
H1600       H  0.48131784  0.09965834  0.73814660     0.14700
C1601       C  0.43941035  0.16257062  0.75855153     0.36400
C1602       C  0.41051823  0.96421817  0.75746826     0.36300
N1603       N  0.44685214  0.20250188  0.75887063    -0.44000
N1604       N  0.40407795  0.92406415  0.75725271    -0.44000
C1605       C  0.60002083  0.58649559  0.21592674    -0.00400
C1606       C  0.58692067  0.62171532  0.20276965    -0.12200
C1607       C  0.60275488  0.66744841  0.20370968     0.01900
C1608       C  0.63269363  0.67891913  0.21794759    -0.00500
C1609       C  0.64404095  0.64490200  0.23191312    -0.12200
C1610       C  0.62787540  0.59888110  0.23107130     0.01800
H1611       H  0.56410374  0.61359339  0.19159831     0.14700
H1612       H  0.66733112  0.65350007  0.24281067     0.14700
C1613       C  0.64207559  0.56483843  0.24529875     0.36400
C1614       C  0.58780935  0.70208549  0.18984608     0.36300
N1615       N  0.65347909  0.53766474  0.25675149    -0.44000
N1616       N  0.57577012  0.72990389  0.17880631    -0.44000
C1617       C  0.59798470  0.91457196  0.23593380    -0.00400
C1618       C  0.58812720  0.90136051  0.25512551    -0.12200
C1619       C  0.56282696  0.92942273  0.26696735     0.01900
C1620       C  0.54576159  0.97213885  0.25960587    -0.00500
C1621       C  0.55530913  0.98516383  0.24024671    -0.12200
C1622       C  0.58123462  0.95709848  0.22848047     0.01800
H1623       H  0.60151500  0.86941699  0.26127329     0.14700
H1624       H  0.54241110  0.01739049  0.23416251     0.14700
C1625       C  0.58936661  0.97241616  0.20874794     0.36400
C1626       C  0.55558017  0.91288880  0.28662586     0.36300
N1627       N  0.59578811  0.98474433  0.19293127    -0.44000
N1628       N  0.54995549  0.89945414  0.30235641    -0.44000
C1629       C  0.79287124  0.71588039  0.24594030    -0.00400
C1630       C  0.81165147  0.73429410  0.26276194    -0.12200
C1631       C  0.83809719  0.70681232  0.27451997     0.01900
C1632       C  0.84677115  0.65933371  0.26953143    -0.00500
C1633       C  0.82637174  0.64032144  0.25320379    -0.12200
C1634       C  0.79969203  0.66775924  0.24152916     0.01800
H1635       H  0.80607976  0.77071199  0.26670650     0.14700
H1636       H  0.83206960  0.60402564  0.24912739     0.14700
C1637       C  0.77925451  0.64491732  0.22538161     0.36400
C1638       C  0.85587467  0.72889870  0.29150102     0.36300
N1639       N  0.76284698  0.62645567  0.21249310    -0.44000
N1640       N  0.87004508  0.74672614  0.30509316    -0.44000
C1641       C  0.83000766  0.85768390  0.17390188    -0.00400
C1642       C  0.83798688  0.90623354  0.17173567    -0.12200
C1643       C  0.87907602  0.92387825  0.17141510     0.01900
C1644       C  0.91350695  0.89269414  0.17340191    -0.00500
C1645       C  0.90563746  0.84392739  0.17311771    -0.12200
C1646       C  0.86455677  0.82622067  0.17334910     0.01800
H1647       H  0.81207255  0.93103404  0.17142994     0.14700
H1648       H  0.93160509  0.81926710  0.17400595     0.14700
C1649       C  0.85928661  0.77563606  0.17377453     0.36400
C1650       C  0.88463126  0.97422629  0.16946917     0.36300
N1651       N  0.85532882  0.73507526  0.17412528    -0.44000
N1652       N  0.88887979  0.01458111  0.16782859    -0.44000
C1653       C  0.60310104  0.66960123  0.03831565    -0.00400
C1654       C  0.63270587  0.66028783  0.02362374    -0.12200
C1655       C  0.65142133  0.61563126  0.02210209     0.01900
C1656       C  0.64067188  0.57974848  0.03556402    -0.00500
C1657       C  0.60983043  0.58839916  0.04958982    -0.12200
C1658       C  0.59051995  0.63232716  0.05088977     0.01800
H1659       H  0.64195503  0.68815810  0.01361995     0.14700
H1660       H  0.60104156  0.56061409  0.05975207     0.14700
C1661       C  0.55695169  0.63724755  0.06492991     0.36400
C1662       C  0.68283680  0.60828268  0.00723940     0.36300
N1663       N  0.52996247  0.64088591  0.07613270    -0.44000
N1664       N  0.70780928  0.60253694  0.99521884    -0.44000
C1665       C  0.49291664  0.04716776  0.99253096    -0.00400
C1666       C  0.52251850  0.01605615  0.98441575    -0.12200
C1667       C  0.52902403  0.97093262  0.99217785     0.01900
C1668       C  0.50583168  0.95593753  0.00868746    -0.00500
C1669       C  0.47579768  0.98675364  0.01661205    -0.12200
C1670       C  0.46901974  0.03168442  0.00875084     0.01800
H1671       H  0.54069414  0.02688453  0.97177597     0.14700
H1672       H  0.45752338  0.97583857  0.02921136     0.14700
C1673       C  0.43638434  0.06006413  0.01743293     0.36400
C1674       C  0.56049739  0.94170665  0.98305549     0.36300
N1675       N  0.41018323  0.08242708  0.02454895    -0.44000
N1676       N  0.58564595  0.91849207  0.97559346    -0.44000
C1677       C  0.59544636  0.82134671  0.11137648    -0.00400
C1678       C  0.60745123  0.86465431  0.11948162    -0.12200
C1679       C  0.63047847  0.86684534  0.13675040     0.01900
C1680       C  0.64332731  0.82483526  0.14623739    -0.00500
C1681       C  0.63089424  0.78137460  0.13834563    -0.12200
C1682       C  0.60652320  0.77929644  0.12131167     0.01800
H1683       H  0.59860566  0.89732977  0.11230417     0.14700
H1684       H  0.63976051  0.74888954  0.14565265     0.14700
C1685       C  0.59402985  0.73355789  0.11430035     0.36400
C1686       C  0.64115325  0.91299783  0.14404087     0.36300
N1687       N  0.58382703  0.69677070  0.10886747    -0.44000
N1688       N  0.64938338  0.94999922  0.14993047    -0.44000
C1689       C  0.65504658  0.91027690  0.02171448    -0.00400
C1690       C  0.65246001  0.95980090  0.02324065    -0.12200
C1691       C  0.67746446  0.98962199  0.01172114     0.01900
C1692       C  0.70598516  0.97014916  0.99826465    -0.00500
C1693       C  0.71002637  0.92095443  0.99726404    -0.12200
C1694       C  0.68532669  0.89103155  0.00886606     0.01800
H1695       H  0.62931102  0.97563896  0.03279318     0.14700
H1696       H  0.73290616  0.90571131  0.98738251     0.14700
C1697       C  0.69189502  0.84086718  0.00708879     0.36400
C1698       C  0.67133408  0.03995891  0.01313744     0.36300
N1699       N  0.69736104  0.80071047  0.00559269    -0.44000
N1700       N  0.66633971  0.08027912  0.01421738    -0.44000
C1701       C  0.45313025  0.71724597  0.00849800    -0.00400
C1702       C  0.44548672  0.72937779  0.98886953    -0.12200
C1703       C  0.42033762  0.70108375  0.97683435     0.01900
C1704       C  0.40251398  0.65890391  0.98418833    -0.00500
C1705       C  0.41106680  0.64611599  0.00355728    -0.12200
C1706       C  0.43526434  0.67474132  0.01573348     0.01800
H1707       H  0.45909178  0.76128622  0.98279773     0.14700
H1708       H  0.39700744  0.61441828  0.00963052     0.14700
C1709       C  0.43993350  0.65949361  0.03569924     0.36400
C1710       C  0.41399339  0.71592557  0.95692175     0.36300
N1711       N  0.44320653  0.64710810  0.05170002    -0.44000
N1712       N  0.40904199  0.72789659  0.94096069    -0.44000
C1713       C  0.33134462  0.89398455  0.07950669    -0.00400
C1714       C  0.33945729  0.84530548  0.08064687    -0.12200
C1715       C  0.38065961  0.82790662  0.08086304     0.01900
C1716       C  0.41504525  0.85952869  0.07964397    -0.00500
C1717       C  0.40687333  0.90812909  0.08092751    -0.12200
C1718       C  0.36569651  0.92550716  0.08099850     0.01800
H1719       H  0.31361875  0.82041517  0.08022299     0.14700
H1720       H  0.43269465  0.93307031  0.08075510     0.14700
C1721       C  0.36001527  0.97595579  0.08207246     0.36400
C1722       C  0.38636797  0.77740979  0.08181662     0.36300
N1723       N  0.35558785  0.01638334  0.08298642    -0.44000
N1724       N  0.39090808  0.73696039  0.08264679    -0.44000
C1725       C  0.86130777  0.32914766  0.28693587    -0.00400
C1726       C  0.84965139  0.36291870  0.27290733    -0.12200
C1727       C  0.86652991  0.40863829  0.27326934     0.01900
C1728       C  0.89598964  0.42064760  0.28774176    -0.00500
C1729       C  0.90834528  0.38606708  0.30133871    -0.12200
C1730       C  0.89143391  0.34083099  0.30104059     0.01800
H1731       H  0.82570633  0.35433935  0.26231072     0.14700
H1732       H  0.93169325  0.39420782  0.31227656     0.14700
C1733       C  0.90591374  0.30686382  0.31527974     0.36400
C1734       C  0.85100129  0.44312865  0.25954032     0.36300
N1735       N  0.91772978  0.27971599  0.32664697    -0.44000
N1736       N  0.83831132  0.47087902  0.24863047    -0.44000
C1737       C  0.74668202  0.95626914  0.24444359    -0.00400
C1738       C  0.71370873  0.97821749  0.25454267    -0.12200
C1739       C  0.71810307  0.02395506  0.26171383     0.01900
C1740       C  0.75615697  0.04850898  0.25884982    -0.00500
C1741       C  0.78918316  0.02658792  0.24876036    -0.12200
C1742       C  0.78477982  0.98076687  0.24158550     0.01800
H1743       H  0.68382158  0.96023488  0.25621423     0.14700
H1744       H  0.81908370  0.04457571  0.24715895     0.14700
C1745       C  0.82026013  0.95896306  0.23206552     0.36400
C1746       C  0.68270321  0.04548195  0.27141214     0.36300
N1747       N  0.84882391  0.94145049  0.22457212    -0.44000
N1748       N  0.65426242  0.06277150  0.27908892    -0.44000
C1749       C  0.70584482  0.28834559  0.25667374    -0.00400
C1750       C  0.68509003  0.26885963  0.24062454    -0.12200
C1751       C  0.65945816  0.29642308  0.22850818     0.01900
C1752       C  0.65365207  0.34517340  0.23237209    -0.00500
C1753       C  0.67616685  0.36501520  0.24791227    -0.12200
C1754       C  0.70211446  0.33744045  0.25989389     0.01800
H1755       H  0.68841846  0.23153767  0.23762928     0.14700
H1756       H  0.67285759  0.40223723  0.25108507     0.14700
C1757       C  0.72542599  0.36104770  0.27498732     0.36400
C1758       C  0.63930153  0.27291577  0.21245330     0.36300
N1759       N  0.74422028  0.38009824  0.28700074    -0.44000
N1760       N  0.62331703  0.25383273  0.19960585    -0.44000
C1761       C  0.58178514  0.11102980  0.32903533    -0.00400
C1762       C  0.59039727  0.15948843  0.33070083    -0.12200
C1763       C  0.63172803  0.17657648  0.33042360     0.01900
C1764       C  0.66584826  0.14490178  0.32844374    -0.00500
C1765       C  0.65742714  0.09628298  0.32893493    -0.12200
C1766       C  0.61615812  0.07913699  0.32920033     0.01800
H1767       H  0.56475704  0.18459716  0.33111465     0.14700
H1768       H  0.68308303  0.07130019  0.32786414     0.14700
C1769       C  0.61060886  0.02858884  0.32875285     0.36400
C1770       C  0.63780751  0.22694046  0.33163822     0.36300
N1771       N  0.60640804  0.98807390  0.32832208    -0.44000
N1772       N  0.64259301  0.26730819  0.33260437    -0.44000
C1773       C  0.90441801  0.09442778  0.26924301    -0.00400
C1774       C  0.90687011  0.04567492  0.27316588    -0.12200
C1775       C  0.93141078  0.01549798  0.26166910     0.01900
C1776       C  0.95399994  0.03363189  0.24551766    -0.00500
C1777       C  0.95299116  0.08244436  0.24203121    -0.12200
C1778       C  0.92923521  0.11282879  0.25374796     0.01800
H1779       H  0.88838402  0.03049589  0.28491477     0.14700
H1780       H  0.97143508  0.09721450  0.23016296     0.14700
C1781       C  0.93111851  0.16260557  0.24924804     0.36400
C1782       C  0.93145425  0.96583560  0.26643649     0.36300
N1783       N  0.93287814  0.20245530  0.24560500    -0.44000
N1784       N  0.93159027  0.92608655  0.27034414    -0.44000
C1785       C  0.86015520  0.42889243  0.46731986    -0.00400
C1786       C  0.88719728  0.41754343  0.45199930    -0.12200
C1787       C  0.90588901  0.37334622  0.45087536     0.01900
C1788       C  0.89677568  0.33840311  0.46514649    -0.00500
C1789       C  0.87144480  0.35059540  0.48112650    -0.12200
C1790       C  0.85323915  0.39557601  0.48236961     0.01800
H1791       H  0.89353370  0.44345193  0.44067266     0.14700
H1792       H  0.86505725  0.32469532  0.49242005     0.14700
C1793       C  0.82608946  0.40567784  0.49867844     0.36400
C1794       C  0.93633847  0.36649504  0.43550643     0.36300
N1795       N  0.80452530  0.41375732  0.51182545    -0.44000
N1796       N  0.96139438  0.36179283  0.42344682    -0.44000
C1797       C  0.00358139  0.95830236  0.50983787    -0.00400
C1798       C  0.97433619  0.98937837  0.51819970    -0.12200
C1799       C  0.96754908  0.03446070  0.51052436     0.01900
C1800       C  0.99027432  0.04955975  0.49390363    -0.00500
C1801       C  0.01925329  0.01829461  0.48542281    -0.12200
C1802       C  0.02602329  0.97319141  0.49309782     0.01800
H1803       H  0.95665124  0.97852524  0.53099831     0.14700
H1804       H  0.03674905  0.02901067  0.47254517     0.14700
C1805       C  0.05699021  0.94386917  0.48365470     0.36400
C1806       C  0.93624567  0.06351847  0.51984642     0.36300
N1807       N  0.08175236  0.92052520  0.47598789    -0.44000
N1808       N  0.91120893  0.08655338  0.52747473    -0.44000
C1809       C  0.89409452  0.18613574  0.39419584    -0.00400
C1810       C  0.87341673  0.14456196  0.38846974    -0.12200
C1811       C  0.84961725  0.14284102  0.37143321     0.01900
C1812       C  0.84589830  0.18326534  0.35954617    -0.00500
C1813       C  0.86501649  0.22535007  0.36545777    -0.12200
C1814       C  0.88928162  0.22707418  0.38249182     0.01800
H1815       H  0.87597512  0.11283353  0.39726250     0.14700
H1816       H  0.86164173  0.25675949  0.35653794     0.14700
C1817       C  0.90807980  0.27154384  0.38755597     0.36400
C1818       C  0.82790442  0.09955707  0.36689095     0.36300
N1819       N  0.92292338  0.30756948  0.39129430    -0.44000
N1820       N  0.81026910  0.06499916  0.36333459    -0.44000
C1821       C  0.04589522  0.28657125  0.49434909    -0.00400
C1822       C  0.07309785  0.26463981  0.50765808    -0.12200
C1823       C  0.09981861  0.29115953  0.51959649     0.01900
C1824       C  0.09951351  0.34122198  0.51848825    -0.00500
C1825       C  0.07101424  0.36288100  0.50566241    -0.12200
C1826       C  0.04445963  0.33634468  0.49377797     0.01800
H1827       H  0.07399157  0.22644450  0.50851906     0.14700
H1828       H  0.06970657  0.40103366  0.50466437     0.14700
C1829       C  0.01490313  0.36168250  0.48180886     0.36400
C1830       C  0.12786711  0.26552152  0.53230407     0.36300
N1831       N  0.99146806  0.38321080  0.47251207    -0.44000
N1832       N  0.15025529  0.24480124  0.54247251    -0.44000
C1833       C  0.07774589  0.14193738  0.42424493    -0.00400
C1834       C  0.11061812  0.17482011  0.42258624    -0.12200
C1835       C  0.15267832  0.16070418  0.42310309     0.01900
C1836       C  0.16279402  0.11227128  0.42501467    -0.00500
C1837       C  0.12993484  0.07911530  0.42464839    -0.12200
C1838       C  0.08782078  0.09330450  0.42440167     0.01800
H1839       H  0.10354293  0.21222724  0.42212639     0.14700
H1840       H  0.13700866  0.04178265  0.42572691     0.14700
C1841       C  0.05614397  0.05698740  0.42596552     0.36400
C1842       C  0.18418486  0.19735816  0.42341220     0.36300
N1843       N  0.03094549  0.02771608  0.42728329    -0.44000
N1844       N  0.20926003  0.22687556  0.42386137    -0.44000
C1845       C  0.79030568  0.04262233  0.50836501    -0.00400
C1846       C  0.80294724  0.02776590  0.48972902    -0.12200
C1847       C  0.82760955  0.05649368  0.47760366     0.01900
C1848       C  0.84089018  0.10134237  0.48408172    -0.00500
C1849       C  0.82632095  0.11729805  0.50221255    -0.12200
C1850       C  0.80140671  0.08876814  0.51429529     0.01800
H1851       H  0.79376520  0.99325273  0.48452886     0.14700
H1852       H  0.83588622  0.15164625  0.50745907     0.14700
C1853       C  0.78789943  0.10839824  0.53262044     0.36400
C1854       C  0.83847371  0.03885482  0.45856203     0.36300
N1855       N  0.77711077  0.12437393  0.54726375    -0.44000
N1856       N  0.84703768  0.02472093  0.44329254    -0.44000
loop_ 
_geom_bond_atom_site_label_1 
_geom_bond_atom_site_label_2 
_geom_bond_distance 
_geom_bond_site_symmetry_2 
_ccdc_geom_bond_type 
Fe1          O17   2.110       .  S
Fe1           O7   2.027       .  S
Fe1          O14   2.044   1_655  S
Fe1           O6   2.107   1_655  S
Fe1          O12   1.929       .  S
Fe2           O5   2.083       .  S
Fe2           O9   2.038       .  S
Fe2          O13   2.087   1_655  S
Fe2          O18   2.031       .  S
Fe2          O12   1.932       .  S
Fe3          O21   2.056       .  S
Fe3           O8   2.103       .  S
Fe3          O15   2.109       .  S
Fe3           O4   2.054   1_655  S
Fe3          O12   1.938       .  S
O4           C11   1.269       .  A
O5           C19   1.273       .  A
O6           C11   1.278       .  A
O7           C10   1.265       .  A
O8           C20   1.278       .  A
O9           C22   1.267       .  A
C10          O15   1.278       .  A
C10        C1788   1.483       .  S
C11        C1821   1.488       .  S
O13          C16   1.272       .  A
O14          C16   1.268       .  A
C16        C1833   1.488       .  S
O17          C22   1.278       .  A
O18          C20   1.266       .  A
C19          O21   1.271       .  A
C19        C1848   1.490       .  S
C20        C1800   1.484       .  S
C22        C1809   1.493       .  S
Fe23         O39   2.097       .  S
Fe23         O29   2.035       .  S
Fe23         O36   2.049       .  S
Fe23         O28   2.093       .  S
Fe23         O34   1.936       .  S
Fe24         O27   2.104       .  S
Fe24         O31   2.047       .  S
Fe24         O35   2.094       .  S
Fe24         O40   2.035       .  S
Fe24         O34   1.940       .  S
Fe25         O43   2.051       .  S
Fe25         O30   2.100       .  S
Fe25         O37   2.096       .  S
Fe25         O26   2.056       .  S
Fe25         O34   1.943       .  S
O26          C33   1.270       .  A
O27          C41   1.278       .  A
O28          C33   1.275       .  A
O29          C32   1.267       .  A
O30          C42   1.276       .  A
O31          C44   1.269       .  A
C32          O37   1.275       .  A
C32        C1725   1.470       .  S
C33        C1749   1.491       .  S
O35          C38   1.275       .  A
O36          C38   1.267       .  A
C38        C1764   1.492       .  S
O39          C44   1.275       .  A
O40          C42   1.264       .  A
C41          O43   1.268       .  A
C41        C1773   1.501       .  S
C42        C1740   1.472       .  S
C44        C1812   1.479       .  S
Fe45         O61   2.048       .  S
Fe45         O51   2.096       .  S
Fe45         O58   2.103       .  S
Fe45         O50   2.035       .  S
Fe45         O56   1.936       .  S
Fe46         O49   2.037       .  S
Fe46         O53   2.090       .  S
Fe46         O57   2.048       .  S
Fe46         O62   2.086       .  S
Fe46         O56   1.942       .  S
Fe47         O65   2.097       .  S
Fe47         O52   2.058       .  S
Fe47         O59   2.063       .  S
Fe47         O48   2.101       .  S
Fe47         O56   1.950       .  S
O48          C55   1.276       .  A
O49          C63   1.267       .  A
O50          C55   1.266       .  A
O51          C54   1.276       .  A
O52          C64   1.270       .  A
O53          C66   1.274       .  A
C54          O59   1.271       .  A
C54        C1701   1.504       .  S
C55        C1653   1.482       .  S
O57          C60   1.269       .  A
O58          C60   1.276       .  A
C60        C1677   1.492       .  S
O61          C66   1.267       .  A
O62          C64   1.275       .  A
C63          O65   1.276       .  A
C63        C1668   1.486       .  S
C64        C1689   1.494       .  S
C66        C1716   1.493       .  S
Fe67         O83   2.051       .  S
Fe67         O73   2.098       .  S
Fe67         O80   2.107       .  S
Fe67         O72   2.035       .  S
Fe67         O78   1.932       .  S
Fe68         O71   2.040       .  S
Fe68         O75   2.088       .  S
Fe68         O79   2.044       .  S
Fe68         O84   2.092       .  S
Fe68         O78   1.939       .  S
Fe69         O87   2.100       .  S
Fe69         O74   2.049       .  S
Fe69         O81   2.052       .  S
Fe69         O70   2.098       .  S
Fe69         O78   1.939       .  S
O70          C77   1.275       .  A
O71          C85   1.266       .  A
O72          C77   1.266       .  A
O73          C76   1.277       .  A
O74          C86   1.269       .  A
O75          C88   1.273       .  A
C76          O81   1.270       .  A
C76        C1629   1.494       .  S
C77        C1608   1.472       .  S
O79          C82   1.268       .  A
O80          C82   1.279       .  A
C82        C1680   1.490       .  S
O83          C88   1.267       .  A
O84          C86   1.273       .  A
C85          O87   1.277       .  A
C85        C1737   1.472       .  S
C86        C1617   1.486       .  S
C88        C1641   1.493       .  S
Fe89        O105   2.101       .  S
Fe89         O95   2.034       .  S
Fe89        O102   2.050       .  S
Fe89         O94   2.091       .  S
Fe89        O100   1.934       .  S
Fe90         O93   2.095       .  S
Fe90         O97   2.041       .  S
Fe90        O101   2.091       .  S
Fe90        O106   2.030       .  S
Fe90        O100   1.937       .  S
Fe91        O109   2.058       .  S
Fe91         O96   2.103       .  S
Fe91        O103   2.110       .  S
Fe91         O92   2.046       .  S
Fe91        O100   1.943       .  S
O92          C99   1.268       .  A
O93         C107   1.276       .  A
O94          C99   1.275       .  A
O95          C98   1.267       .  A
O96         C108   1.277       .  A
O97         C110   1.268       .  A
C98         O103   1.278       .  A
C98        C1533   1.491       .  S
C99        C1572   1.486       .  S
O101        C104   1.272       .  A
O102        C104   1.267       .  A
C104       C1581   1.498       .  S
O105        C110   1.277       .  A
O106        C108   1.263       .  A
C107        O109   1.271       .  A
C107       C1593   1.496       .  S
C108       C1545   1.473       .  S
C110       C1557   1.481       .  S
Fe111       O127   2.108       .  S
Fe111       O117   2.037       .  S
Fe111       O124   2.050       .  S
Fe111       O116   2.097       .  S
Fe111       O122   1.935       .  S
Fe112       O115   2.090       .  S
Fe112       O119   2.038       .  S
Fe112       O123   2.090       .  S
Fe112       O128   2.033       .  S
Fe112       O122   1.936       .  S
Fe113       O131   2.050       .  S
Fe113       O118   2.101       .  S
Fe113       O125   2.093       .  S
Fe113       O114   2.051       .  S
Fe113       O122   1.937       .  S
O114        C121   1.270       .  A
O115        C129   1.274       .  A
O116        C121   1.276       .  A
O117        C120   1.268       .  A
O118        C130   1.276       .  A
O119        C132   1.267       .  A
C120        O125   1.275       .  A
C120       C1485   1.471       .  S
C121       C1497   1.487       .  S
O123        C126   1.274       .  A
O124        C126   1.267       .  A
C126       C1512   1.494       .  S
O127        C132   1.277       .  A
O128        C130   1.265       .  A
C129        O131   1.269       .  A
C129       C1524   1.492       .  S
C130       C1665   1.486       .  S
C132       C1560   1.493       .  S
Fe133       O149   2.046       .  S
Fe133       O139   2.101       .  S
Fe133       O146   2.112       .  S
Fe133       O138   2.029       .  S
Fe133       O144   1.930       .  S
Fe134       O137   2.032       .  S
Fe134       O141   2.092       .  S
Fe134       O145   2.040       .  S
Fe134       O150   2.091       .  S
Fe134       O144   1.930       .  S
Fe135       O153   2.104       .  S
Fe135       O140   2.050       .  S
Fe135       O147   2.048       .  S
Fe135       O136   2.104       .  S
Fe135       O144   1.941       .  S
O136        C143   1.277       .  A
O137        C151   1.264       .  A
O138        C143   1.266       .  A
O139        C142   1.278       .  A
O140        C152   1.269       .  A
O141        C154   1.274       .  A
C142        O147   1.268       .  A
C142       C1461   1.486       .  S
C143       C1425   1.483       .  S
O145        C148   1.267       .  A
O146        C148   1.279       .  A
C148       C1437   1.492       .  S
O149        C154   1.266       .  A
O150        C152   1.275       .  A
C151        O153   1.277       .  A
C151       C1548   1.473       .  S
C152       C1449   1.489       .  S
C154       C1473   1.489       .  S
Fe155       O171   2.056   1_455  S
Fe155       O161   2.104   1_455  S
Fe155       O168   2.113       .  S
Fe155       O160   2.031       .  S
Fe155       O166   1.937       .  S
Fe156       O159   2.035       .  S
Fe156       O163   2.090   1_455  S
Fe156       O167   2.042       .  S
Fe156       O172   2.091       .  S
Fe156       O166   1.934       .  S
Fe157       O175   2.094       .  S
Fe157       O162   2.054       .  S
Fe157       O169   2.045   1_455  S
Fe157       O158   2.099       .  S
Fe157       O166   1.941       .  S
O158        C165   1.276       .  A
O159        C173   1.266       .  A
O160        C165   1.266       .  A
O161        C164   1.278       .  A
O162        C174   1.269       .  A
O163        C176   1.273       .  A
C164        O169   1.267       .  A
C164       C1404   1.482       .  S
C165       C1380   1.478       .  S
O167        C170   1.268       .  A
O168        C170   1.279       .  A
C170       C1440   1.489       .  S
O171        C176   1.269       .  A
O172        C174   1.275       .  A
C173        O175   1.275       .  A
C173       C1797   1.484       .  S
C174       C1389   1.497       .  S
C176       C1413   1.493       .  S
Fe177       O193   2.048       .  S
Fe177       O183   2.094   1_565  S
Fe177       O190   2.104       .  S
Fe177       O182   2.037   1_565  S
Fe177       O188   1.934       .  S
Fe178       O181   2.032       .  S
Fe178       O185   2.094       .  S
Fe178       O189   2.043       .  S
Fe178       O194   2.091       .  S
Fe178       O188   1.936       .  S
Fe179       O197   2.087       .  S
Fe179       O184   2.053       .  S
Fe179       O191   2.047       .  S
Fe179       O180   2.090   1_565  S
Fe179       O188   1.943       .  S
O180        C187   1.274       .  A
O181        C195   1.266       .  A
O182        C187   1.268       .  A
O183        C186   1.275       .  A
O184        C196   1.269       .  A
O185        C198   1.274       .  A
C186        O191   1.268   1_545  A
C186       C1521   1.491       .  S
C187       C1329   1.469       .  S
O189        C192   1.268       .  A
O190        C192   1.277       .  A
C192       C1353   1.496       .  S
O193        C198   1.267       .  A
O194        C196   1.275       .  A
C195        O197   1.273       .  A
C195       C1344   1.480       .  S
C196       C1365   1.492       .  S
C198       C1713   1.493       .  S
Fe199       O215   2.051   1_455  S
Fe199       O205   2.107   1_465  S
Fe199       O212   2.106       .  S
Fe199       O204   2.028   1_565  S
Fe199       O210   1.930       .  S
Fe200       O203   2.033       .  S
Fe200       O207   2.089   1_455  S
Fe200       O211   2.040       .  S
Fe200       O216   2.091       .  S
Fe200       O210   1.936       .  S
Fe201       O219   2.105       .  S
Fe201       O206   2.056       .  S
Fe201       O213   2.052   1_455  S
Fe201       O202   2.113   1_565  S
Fe201       O210   1.944       .  S
O202        C209   1.278       .  A
O203        C217   1.265       .  A
O204        C209   1.263       .  A
O205        C208   1.279       .  A
O206        C218   1.270       .  A
O207        C220   1.273       .  A
C208        O213   1.269   1_545  A
C208       C1776   1.492       .  S
C209       C1293   1.490       .  S
O211        C214   1.267       .  A
O212        C214   1.278       .  A
C214       C1356   1.480       .  S
O215        C220   1.267       .  A
O216        C218   1.275       .  A
C217        O219   1.278       .  A
C217       C1305   1.477       .  S
C218       C1317   1.494       .  S
C220       C1644   1.491       .  S
Fe221       O237   2.115       .  S
Fe221       O227   2.029       .  S
Fe221       O234   2.049   1_655  S
Fe221       O226   2.110   1_655  S
Fe221       O232   1.935       .  S
Fe222       O225   2.088       .  S
Fe222       O229   2.045       .  S
Fe222       O233   2.086   1_655  S
Fe222       O238   2.040       .  S
Fe222       O232   1.936       .  S
Fe223       O241   2.057       .  S
Fe223       O228   2.100       .  S
Fe223       O235   2.103       .  S
Fe223       O224   2.054   1_655  S
Fe223       O232   1.942       .  S
O224        C231   1.269       .  A
O225        C239   1.273       .  A
O226        C231   1.279       .  A
O227        C230   1.266       .  A
O228        C240   1.278       .  A
O229        C242   1.269       .  A
C230        O235   1.277       .  A
C230       C1728   1.481       .  S
C231       C1269   1.492       .  S
O233        C236   1.272       .  A
O234        C236   1.267       .  A
C236       C1281   1.487       .  S
O237        C242   1.280       .  A
O238        C240   1.266       .  A
C239        O241   1.270       .  A
C239       C1632   1.496       .  S
C240       C1308   1.475       .  S
C242       C1257   1.497       .  S
Fe243       O259   2.105       .  S
Fe243       O249   2.032       .  S
Fe243       O256   2.048       .  S
Fe243       O248   2.100       .  S
Fe243       O254   1.937       .  S
Fe244       O247   2.099       .  S
Fe244       O251   2.052       .  S
Fe244       O255   2.096       .  S
Fe244       O260   2.039       .  S
Fe244       O254   1.941       .  S
Fe245       O263   2.048       .  S
Fe245       O250   2.096       .  S
Fe245       O257   2.095       .  S
Fe245       O246   2.051       .  S
Fe245       O254   1.947       .  S
O246        C253   1.269       .  A
O247        C261   1.278       .  A
O248        C253   1.277       .  A
O249        C252   1.267       .  A
O250        C262   1.275       .  A
O251        C264   1.269       .  A
C252        O257   1.274       .  A
C252       C1785   1.473       .  S
C253       C1233   1.486       .  S
O255        C258   1.276       .  A
O256        C258   1.267       .  A
C258       C1245   1.499       .  S
O259        C264   1.277       .  A
O260        C262   1.264       .  A
C261        O263   1.268       .  A
C261       C1401   1.493       .  S
C262       C1221   1.477       .  S
C264       C1260   1.491       .  S
Fe265       O281   2.044       .  S
Fe265       O271   2.102   1_565  S
Fe265       O278   2.103       .  S
Fe265       O270   2.025   1_565  S
Fe265       O276   1.932       .  S
Fe266       O269   2.035       .  S
Fe266       O273   2.093       .  S
Fe266       O277   2.049       .  S
Fe266       O282   2.094       .  S
Fe266       O276   1.935       .  S
Fe267       O285   2.099       .  S
Fe267       O272   2.057       .  S
Fe267       O279   2.057       .  S
Fe267       O268   2.107   1_565  S
Fe267       O276   1.943       .  S
O268        C275   1.277       .  A
O269        C283   1.264       .  A
O270        C275   1.264       .  A
O271        C274   1.277       .  A
O272        C284   1.272       .  A
O273        C286   1.275       .  A
C274        O279   1.270   1_545  A
C274       C1596   1.484       .  S
C275       C1176   1.479       .  S
O277        C280   1.269       .  A
O278        C280   1.277       .  A
C280       C1197   1.489       .  S
O281        C286   1.266       .  A
O282        C284   1.275       .  A
C283        O285   1.276       .  A
C283       C1185   1.476       .  S
C284       C1212   1.499       .  S
C286       C1476   1.495       .  S
Fe287       O303   2.049       .  S
Fe287       O293   2.093   1_565  S
Fe287       O300   2.110       .  S
Fe287       O292   2.032   1_565  S
Fe287       O298   1.932       .  S
Fe288       O291   2.034       .  S
Fe288       O295   2.093       .  S
Fe288       O299   2.046       .  S
Fe288       O304   2.093       .  S
Fe288       O298   1.934       .  S
Fe289       O307   2.107       .  S
Fe289       O294   2.044       .  S
Fe289       O301   2.049       .  S
Fe289       O290   2.100   1_565  S
Fe289       O298   1.941       .  S
O290        C297   1.277       .  A
O291        C305   1.265       .  A
O292        C297   1.268       .  A
O293        C296   1.275       .  A
O294        C306   1.265       .  A
O295        C308   1.273       .  A
C296        O301   1.269   1_545  A
C296       C1845   1.495       .  S
C297       C1149   1.478       .  S
O299        C302   1.268       .  A
O300        C302   1.278       .  A
C302       C1200   1.493       .  S
O303        C308   1.268       .  A
O304        C306   1.275       .  A
C305        O307   1.279       .  A
C305       C1224   1.478       .  S
C306       C1161   1.492       .  S
C308       C1416   1.497       .  S
Fe309       O325   2.104       .  S
Fe309       O315   2.041       .  S
Fe309       O322   2.057       .  S
Fe309       O314   2.097       .  S
Fe309       O320   1.934       .  S
Fe310       O313   2.095       .  S
Fe310       O317   2.033       .  S
Fe310       O321   2.087       .  S
Fe310       O326   2.036       .  S
Fe310       O320   1.934       .  S
Fe311       O329   2.048       .  S
Fe311       O316   2.100       .  S
Fe311       O323   2.099       .  S
Fe311       O312   2.040       .  S
Fe311       O320   1.935       .  S
O312        C319   1.267       .  A
O313        C327   1.273       .  A
O314        C319   1.277       .  A
O315        C318   1.267       .  A
O316        C328   1.277       .  A
O317        C330   1.267       .  A
C318        O323   1.275       .  A
C318       C1536   1.478       .  S
C319       C1125   1.478       .  S
O321        C324   1.273       .  A
O322        C324   1.268       .  A
C324       C1137   1.494       .  S
O325        C330   1.278       .  A
O326        C328   1.265       .  A
C327        O329   1.268       .  A
C327       C1464   1.494       .  S
C328       C1188   1.477       .  S
C330       C1113   1.481       .  S
Fe331       O347   2.098       .  S
Fe331       O337   2.028       .  S
Fe331       O344   2.049       .  S
Fe331       O336   2.094       .  S
Fe331       O342   1.936       .  S
Fe332       O335   2.095       .  S
Fe332       O339   2.037       .  S
Fe332       O343   2.090       .  S
Fe332       O348   2.030       .  S
Fe332       O342   1.938       .  S
Fe333       O351   2.059       .  S
Fe333       O338   2.094       .  S
Fe333       O345   2.100       .  S
Fe333       O334   2.053       .  S
Fe333       O342   1.941       .  S
O334        C341   1.268       .  A
O335        C349   1.273       .  A
O336        C341   1.276       .  A
O337        C340   1.266       .  A
O338        C350   1.277       .  A
O339        C352   1.269       .  A
C340        O345   1.277       .  A
C340       C1488   1.483       .  S
C341       C1092   1.491       .  S
O343        C346   1.273       .  A
O344        C346   1.266       .  A
C346       C1104   1.485       .  S
O347        C352   1.277       .  A
O348        C350   1.267       .  A
C349        O351   1.270       .  A
C349       C1704   1.494       .  S
C350       C1341   1.480       .  S
C352       C1116   1.481       .  S
Fe353       O369   2.050       .  S
Fe353       O359   2.083       .  S
Fe353       O366   2.099       .  S
Fe353       O358   2.039       .  S
Fe353       O364   1.938       .  S
Fe354       O357   2.036       .  S
Fe354       O361   2.089       .  S
Fe354       O365   2.052       .  S
Fe354       O370   2.077       .  S
Fe354       O364   1.939       .  S
Fe355       O373   2.088       .  S
Fe355       O360   2.062       .  S
Fe355       O367   2.053       .  S
Fe355       O356   2.098       .  S
Fe355       O364   1.946       .  S
O356        C363   1.277       .  A
O357        C371   1.267       .  A
O358        C363   1.270       .  A
O359        C362   1.272       .  A
O360        C372   1.271       .  A
O361        C374   1.273       .  A
C362        O367   1.268       .  A
C362       C1065   1.489       .  S
C363       C1656   1.471       .  S
O365        C368   1.268       .  A
O366        C368   1.276       .  A
C368       C1053   1.485       .  S
O369        C374   1.267       .  A
O370        C372   1.270       .  A
C371        O373   1.276       .  A
C371       C1044   1.476       .  S
C372       C1500   1.497       .  S
C374       C1077   1.486       .  S
Fe375       O391   2.054       .  S
Fe375       O381   2.093       .  S
Fe375       O388   2.103       .  S
Fe375       O380   2.041       .  S
Fe375       O386   1.939       .  S
Fe376       O379   2.042       .  S
Fe376       O383   2.091       .  S
Fe376       O387   2.051       .  S
Fe376       O392   2.084       .  S
Fe376       O386   1.939       .  S
Fe377       O395   2.086       .  S
Fe377       O382   2.062       .  S
Fe377       O389   2.050       .  S
Fe377       O378   2.098       .  S
Fe377       O386   1.940       .  S
O378        C385   1.277       .  A
O379        C393   1.268       .  A
O380        C385   1.271       .  A
O381        C384   1.273       .  A
O382        C394   1.271       .  A
O383        C396   1.274       .  A
C384        O389   1.266       .  A
C384       C1017   1.475       .  S
C385       C1605   1.484       .  S
O387        C390   1.267       .  A
O388        C390   1.276       .  A
C390       C1056   1.476       .  S
O391        C396   1.268       .  A
O392        C394   1.272       .  A
C393        O395   1.275       .  A
C393       C1005   1.482       .  S
C394       C1752   1.499       .  S
C396       C1029   1.489       .  S
Fe397       O413   2.108       .  S
Fe397       O403   2.025   1_545  S
Fe397       O410   2.047       .  S
Fe397       O402   2.097   1_545  S
Fe397       O408   1.935       .  S
Fe398       O401   2.080       .  S
Fe398       O405   2.039       .  S
Fe398       O409   2.085       .  S
Fe398       O414   2.041       .  S
Fe398       O408   1.932       .  S
Fe399       O417   2.059       .  S
Fe399       O404   2.106       .  S
Fe399       O411   2.107   1_545  S
Fe399       O400   2.054       .  S
Fe399       O408   1.940       .  S
O400        C407   1.269       .  A
O401        C415   1.271       .  A
O402        C407   1.277   1_565  A
O403        C406   1.266       .  A
O404        C416   1.279       .  A
O405        C418   1.268       .  A
C406        O411   1.278       .  A
C406        C957   1.482       .  S
C407       C1392   1.490   1_545  S
O409        C412   1.271       .  A
O410        C412   1.267       .  A
C412       C1836   1.489       .  S
O413        C418   1.278       .  A
O414        C416   1.268       .  A
C415        O417   1.271       .  A
C415        C996   1.497       .  S
C416        C969   1.481       .  S
C418        C981   1.493       .  S
Fe419       O435   2.095       .  S
Fe419       O425   2.030   1_545  S
Fe419       O432   2.044       .  S
Fe419       O424   2.086   1_545  S
Fe419       O430   1.929       .  S
Fe420       O423   2.091       .  S
Fe420       O427   2.045       .  S
Fe420       O431   2.096       .  S
Fe420       O436   2.030       .  S
Fe420       O430   1.934       .  S
Fe421       O439   2.054       .  S
Fe421       O426   2.101       .  S
Fe421       O433   2.103   1_545  S
Fe421       O422   2.057       .  S
Fe421       O430   1.949       .  S
O422        C429   1.271       .  A
O423        C437   1.276       .  A
O424        C429   1.275   1_565  A
O425        C428   1.263       .  A
O426        C438   1.275       .  A
O427        C440   1.267       .  A
C428        O433   1.275       .  A
C428        C936   1.486       .  S
C429       C1620   1.495   1_545  S
O431        C434   1.275       .  A
O432        C434   1.265       .  A
C434       C1761   1.496       .  S
O435        C440   1.274       .  A
O436        C438   1.265       .  A
C437        O439   1.271       .  A
C437        C948   1.495       .  S
C438       C1008   1.485       .  S
C440        C984   1.481       .  S
Fe441       O457   2.056   1_455  S
Fe441       O447   2.103   1_455  S
Fe441       O454   2.117       .  S
Fe441       O446   2.037       .  S
Fe441       O452   1.933       .  S
Fe442       O445   2.034       .  S
Fe442       O449   2.095   1_455  S
Fe442       O453   2.045       .  S
Fe442       O458   2.092       .  S
Fe442       O452   1.935       .  S
Fe443       O461   2.101       .  S
Fe443       O448   2.045       .  S
Fe443       O455   2.050   1_455  S
Fe443       O444   2.091       .  S
Fe443       O452   1.943       .  S
O444        C451   1.274       .  A
O445        C459   1.266       .  A
O446        C451   1.267       .  A
O447        C450   1.278       .  A
O448        C460   1.268       .  A
O449        C462   1.275       .  A
C450        O455   1.271       .  A
C450        C909   1.489       .  S
C451       C1428   1.473       .  S
O453        C456   1.267       .  A
O454        C456   1.280       .  A
C456        C900   1.501       .  S
O457        C462   1.268       .  A
O458        C460   1.274       .  A
C459        O461   1.275       .  A
C459        C885   1.487       .  S
C460       C1569   1.492       .  S
C462        C924   1.500       .  S
Fe463       O479   2.046       .  S
Fe463       O469   2.101       .  S
Fe463       O476   2.104       .  S
Fe463       O468   2.033       .  S
Fe463       O474   1.941       .  S
Fe464       O467   2.046       .  S
Fe464       O471   2.087       .  S
Fe464       O475   2.056       .  S
Fe464       O480   2.093       .  S
Fe464       O474   1.942       .  S
Fe465       O483   2.091       .  S
Fe465       O470   2.054       .  S
Fe465       O477   2.053       .  S
Fe465       O466   2.097       .  S
Fe465       O474   1.942       .  S
O466        C473   1.275       .  A
O467        C481   1.265       .  A
O468        C473   1.267       .  A
O469        C472   1.276       .  A
O470        C482   1.272       .  A
O471        C484   1.274       .  A
C472        O477   1.269       .  A
C472        C861   1.488       .  S
C473       C1377   1.470       .  S
O475        C478   1.270       .  A
O476        C478   1.276       .  A
C478        C897   1.493       .  S
O479        C484   1.266       .  A
O480        C482   1.275       .  A
C481        O483   1.275       .  A
C481        C972   1.479       .  S
C482       C1824   1.496       .  S
C484        C873   1.495       .  S
Fe485       O501   2.099       .  S
Fe485       O491   2.038   1_545  S
Fe485       O498   2.059   1_655  S
Fe485       O490   2.088   1_645  S
Fe485       O496   1.936       .  S
Fe486       O489   2.091       .  S
Fe486       O493   2.041       .  S
Fe486       O497   2.088   1_655  S
Fe486       O502   2.036       .  S
Fe486       O496   1.935       .  S
Fe487       O505   2.050       .  S
Fe487       O492   2.095       .  S
Fe487       O499   2.088   1_545  S
Fe487       O488   2.050       .  S
Fe487       O496   1.936       .  S
O488        C495   1.269   1_645  A
O489        C503   1.273       .  A
O490        C495   1.273       .  A
O491        C494   1.269       .  A
O492        C504   1.277       .  A
O493        C506   1.267       .  A
C494        O499   1.274       .  A
C494        C825   1.467       .  S
C495       C1452   1.494       .  S
O497        C500   1.273       .  A
O498        C500   1.270       .  A
C500       C1584   1.491       .  S
O501        C506   1.275       .  A
O502        C504   1.267       .  A
C503        O505   1.266       .  A
C503        C852   1.495       .  S
C504        C888   1.483       .  S
C506        C837   1.481       .  S
Fe507       O523   2.101       .  S
Fe507       O513   2.027   1_545  S
Fe507       O520   2.048       .  S
Fe507       O512   2.094   1_545  S
Fe507       O518   1.929       .  S
Fe508       O511   2.085       .  S
Fe508       O515   2.036       .  S
Fe508       O519   2.092       .  S
Fe508       O524   2.028       .  S
Fe508       O518   1.931       .  S
Fe509       O527   2.055       .  S
Fe509       O514   2.097       .  S
Fe509       O521   2.104   1_545  S
Fe509       O510   2.052       .  S
Fe509       O518   1.942       .  S
O510        C517   1.269   1_545  A
O511        C525   1.274       .  A
O512        C517   1.276       .  A
O513        C516   1.266       .  A
O514        C526   1.276       .  A
O515        C528   1.267       .  A
C516        O521   1.276       .  A
C516        C801   1.484       .  S
C517       C1692   1.480       .  S
O519        C522   1.274       .  A
O520        C522   1.267       .  A
C522       C1509   1.492       .  S
O523        C528   1.276       .  A
O524        C526   1.266       .  A
C525        O527   1.269       .  A
C525        C816   1.490       .  S
C526       C1041   1.479       .  S
C528        C840   1.484       .  S
Fe529       O545   2.103       .  S
Fe529       O535   2.033       .  S
Fe529       O542   2.039   1_655  S
Fe529       O534   2.100   1_655  S
Fe529       O540   1.933       .  S
Fe530       O533   2.092       .  S
Fe530       O537   2.047       .  S
Fe530       O541   2.098   1_655  S
Fe530       O546   2.041       .  S
Fe530       O540   1.937       .  S
Fe531       O549   2.048       .  S
Fe531       O536   2.093       .  S
Fe531       O543   2.095       .  S
Fe531       O532   2.050   1_655  S
Fe531       O540   1.937       .  S
O532        C539   1.269       .  A
O533        C547   1.274       .  A
O534        C539   1.276       .  A
O535        C538   1.267       .  A
O536        C548   1.275       .  A
O537        C550   1.267       .  A
C538        O543   1.274       .  A
C538        C804   1.474       .  S
C539       C1368   1.481       .  S
O541        C544   1.276       .  A
O542        C544   1.266       .  A
C544       C1101   1.494       .  S
O545        C550   1.276       .  A
O546        C548   1.266       .  A
C547        O549   1.269       .  A
C547       C1068   1.493       .  S
C548        C777   1.478       .  S
C550        C789   1.480       .  S
Fe551       O567   2.102       .  S
Fe551       O557   2.033       .  S
Fe551       O564   2.044       .  S
Fe551       O556   2.093       .  S
Fe551       O562   1.936       .  S
Fe552       O555   2.078       .  S
Fe552       O559   2.048       .  S
Fe552       O563   2.095       .  S
Fe552       O568   2.033       .  S
Fe552       O562   1.938       .  S
Fe553       O571   2.066       .  S
Fe553       O558   2.085       .  S
Fe553       O565   2.093       .  S
Fe553       O554   2.058       .  S
Fe553       O562   1.942       .  S
O554        C561   1.269       .  A
O555        C569   1.271       .  A
O556        C561   1.274       .  A
O557        C560   1.269       .  A
O558        C570   1.275       .  A
O559        C572   1.267       .  A
C560        O565   1.276       .  A
C560        C828   1.480       .  S
C561       C1209   1.490       .  S
O563        C566   1.274       .  A
O564        C566   1.266       .  A
C566       C1140   1.489       .  S
O567        C572   1.275       .  A
O568        C570   1.267       .  A
C569        O571   1.271       .  A
C569        C912   1.499       .  S
C570        C765   1.474       .  S
C572        C792   1.476       .  S
Fe573       O589   2.047   1_455  S
Fe573       O579   2.103   1_455  S
Fe573       O586   2.103       .  S
Fe573       O578   2.026       .  S
Fe573       O584   1.932       .  S
Fe574       O577   2.040       .  S
Fe574       O581   2.096   1_455  S
Fe574       O585   2.049       .  S
Fe574       O590   2.098       .  S
Fe574       O584   1.932       .  S
Fe575       O593   2.097       .  S
Fe575       O580   2.052       .  S
Fe575       O587   2.045   1_455  S
Fe575       O576   2.104       .  S
Fe575       O584   1.940       .  S
O576        C583   1.276       .  A
O577        C591   1.265       .  A
O578        C583   1.263       .  A
O579        C582   1.277       .  A
O580        C592   1.271       .  A
O581        C594   1.276       .  A
C582        O587   1.268       .  A
C582        C813   1.478       .  S
C583       C1332   1.477       .  S
O585        C588   1.269       .  A
O586        C588   1.276       .  A
C588        C753   1.493       .  S
O589        C594   1.266       .  A
O590        C592   1.276       .  A
C591        O593   1.276       .  A
C591        C780   1.480       .  S
C592       C1089   1.497       .  S
C594       C1080   1.497       .  S
Fe595       O611   2.049       .  S
Fe595       O601   2.102       .  S
Fe595       O608   2.113       .  S
Fe595       O600   2.031       .  S
Fe595       O606   1.936       .  S
Fe596       O599   2.036       .  S
Fe596       O603   2.096       .  S
Fe596       O607   2.042       .  S
Fe596       O612   2.099       .  S
Fe596       O606   1.936       .  S
Fe597       O615   2.099       .  S
Fe597       O602   2.053       .  S
Fe597       O609   2.044       .  S
Fe597       O598   2.103       .  S
Fe597       O606   1.939       .  S
O598        C605   1.276       .  A
O599        C613   1.265       .  A
O600        C605   1.267       .  A
O601        C604   1.277       .  A
O602        C614   1.270       .  A
O603        C616   1.275       .  A
C604        O609   1.268       .  A
C604        C945   1.492       .  S
C605       C1296   1.477       .  S
O607        C610   1.267       .  A
O608        C610   1.279       .  A
C610        C756   1.492       .  S
O611        C616   1.266       .  A
O612        C614   1.275       .  A
C613        O615   1.278       .  A
C613        C741   1.481       .  S
C614       C1272   1.500       .  S
C616       C1032   1.497       .  S
Fe617       O633   2.107       .  S
Fe617       O623   2.027       .  S
Fe617       O630   2.047       .  S
Fe617       O622   2.102       .  S
Fe617       O628   1.935       .  S
Fe618       O621   2.087       .  S
Fe618       O625   2.042       .  S
Fe618       O629   2.090       .  S
Fe618       O634   2.038       .  S
Fe618       O628   1.937       .  S
Fe619       O637   2.052       .  S
Fe619       O624   2.099       .  S
Fe619       O631   2.102       .  S
Fe619       O620   2.052       .  S
Fe619       O628   1.942       .  S
O620        C627   1.268       .  A
O621        C635   1.274       .  A
O622        C627   1.276       .  A
O623        C626   1.266       .  A
O624        C636   1.277       .  A
O625        C638   1.267       .  A
C626        O631   1.276       .  A
C626        C933   1.476       .  S
C627       C1320   1.482       .  S
O629        C632   1.274       .  A
O630        C632   1.267       .  A
C632       C1284   1.492       .  S
O633        C638   1.277       .  A
O634        C636   1.266       .  A
C635        O637   1.268       .  A
C635       C1020   1.487       .  S
C636        C744   1.482       .  S
C638        C729   1.488       .  S
Fe639       O655   2.107       .  S
Fe639       O645   2.040       .  S
Fe639       O652   2.056       .  S
Fe639       O644   2.099       .  S
Fe639       O650   1.943       .  S
Fe640       O643   2.092       .  S
Fe640       O647   2.047       .  S
Fe640       O651   2.091       .  S
Fe640       O656   2.043       .  S
Fe640       O650   1.936       .  S
Fe641       O659   2.050       .  S
Fe641       O646   2.084       .  S
Fe641       O653   2.090       .  S
Fe641       O642   2.039       .  S
Fe641       O650   1.942       .  S
O642        C649   1.265       .  A
O643        C657   1.276       .  A
O644        C649   1.276       .  A
O645        C648   1.269       .  A
O646        C658   1.273       .  A
O647        C660   1.269       .  A
C648        O653   1.274       .  A
C648        C960   1.470       .  S
C649       C1164   1.480       .  S
O651        C654   1.275       .  A
O652        C654   1.269       .  A
C654       C1248   1.490       .  S
O655        C660   1.277       .  A
O656        C658   1.267       .  A
C657        O659   1.268       .  A
C657        C864   1.495       .  S
C658        C720   1.482       .  S
C660        C732   1.493       .  S
Fe661       O677   2.053       .  S
Fe661       O667   2.092       .  S
Fe661       O674   2.108       .  S
Fe661       O666   2.042       .  S
Fe661       O672   1.934       .  S
Fe662       O665   2.031       .  S
Fe662       O669   2.096       .  S
Fe662       O673   2.045       .  S
Fe662       O678   2.084       .  S
Fe662       O672   1.939       .  S
Fe663       O681   2.086       .  S
Fe663       O668   2.050       .  S
Fe663       O675   2.050       .  S
Fe663       O664   2.086       .  S
Fe663       O672   1.946       .  S
O664        C671   1.273       .  A
O665        C679   1.266       .  A
O666        C671   1.269       .  A
O667        C670   1.277       .  A
O668        C680   1.267       .  A
O669        C682   1.275       .  A
C670        O675   1.268       .  A
C670        C849   1.492       .  S
C671       C1173   1.469       .  S
O673        C676   1.266       .  A
O674        C676   1.277       .  A
C676        C705   1.486       .  S
O677        C682   1.268       .  A
O678        C680   1.274       .  A
C679        O681   1.274       .  A
C679        C768   1.476       .  S
C680       C1128   1.490       .  S
C682        C921   1.495       .  S
Fe683       O699   2.046       .  S
Fe683       O689   2.090       .  S
Fe683       O696   2.101       .  S
Fe683       O688   2.033       .  S
Fe683       O694   1.937       .  S
Fe684       O687   2.038       .  S
Fe684       O691   2.093       .  S
Fe684       O695   2.053       .  S
Fe684       O700   2.082       .  S
Fe684       O694   1.936       .  S
Fe685       O703   2.097       .  S
Fe685       O690   2.058       .  S
Fe685       O697   2.058       .  S
Fe685       O686   2.102       .  S
Fe685       O694   1.941       .  S
O686        C693   1.278       .  A
O687        C701   1.268       .  A
O688        C693   1.269       .  A
O689        C692   1.273       .  A
O690        C702   1.269       .  A
O691        C704   1.275       .  A
C692        O697   1.269       .  A
C692        C993   1.487       .  S
C693       C1152   1.488       .  S
O695        C698   1.267       .  A
O696        C698   1.274       .  A
C698        C708   1.477       .  S
O699        C704   1.267       .  A
O700        C702   1.273       .  A
C701        O703   1.277       .  A
C701        C717   1.483       .  S
C702       C1236   1.496       .  S
C704        C876   1.483       .  S
C705        C706   1.405       .  A
C705        C710   1.418       .  A
C706        C707   1.404       .  A
C706        H711   1.084       .  S
C707        C708   1.411       .  A
C707        C714   1.444       .  S
C708        C709   1.400       .  A
C709        C710   1.402       .  A
C709        H712   1.085       .  S
C710        C713   1.445       .  S
C713        N715   1.157       .  T
C714        N716   1.157       .  T
C717        C718   1.405       .  A
C717        C722   1.416       .  A
C718        C719   1.397       .  A
C718        H723   1.086       .  S
C719        C720   1.416       .  A
C719        C726   1.445       .  S
C720        C721   1.405       .  A
C721        C722   1.399       .  A
C721        H724   1.086       .  S
C722        C725   1.445       .  S
C725        N727   1.157       .  T
C726        N728   1.157       .  T
C729        C730   1.407       .  A
C729        C734   1.414       .  A
C730        C731   1.409       .  A
C730        H735   1.084       .  S
C731        C732   1.417       .  A
C731        C738   1.443       .  S
C732        C733   1.406       .  A
C733        C734   1.397       .  A
C733        H736   1.084       .  S
C734        C737   1.446       .  S
C737        N739   1.157       .  T
C738        N740   1.157       .  T
C741        C742   1.405       .  A
C741        C746   1.415       .  A
C742        C743   1.398       .  A
C742        H747   1.084       .  S
C743        C744   1.414       .  A
C743        C750   1.444       .  S
C744        C745   1.406       .  A
C745        C746   1.400       .  A
C745        H748   1.084       .  S
C746        C749   1.444       .  S
C749        N751   1.157       .  T
C750        N752   1.157       .  T
C753        C754   1.404       .  A
C753        C758   1.417       .  A
C754        C755   1.397       .  A
C754        H759   1.085       .  S
C755        C756   1.416       .  A
C755        C762   1.445       .  S
C756        C757   1.407       .  A
C757        C758   1.409       .  A
C757        H760   1.085       .  S
C758        C761   1.443       .  S
C761        N763   1.157       .  T
C762        N764   1.157       .  T
C765        C766   1.404       .  A
C765        C770   1.414       .  A
C766        C767   1.396       .  A
C766        H771   1.086       .  S
C767        C768   1.415       .  A
C767        C774   1.445       .  S
C768        C769   1.404       .  A
C769        C770   1.394       .  A
C769        H772   1.086       .  S
C770        C773   1.445       .  S
C773        N775   1.157       .  T
C774        N776   1.157       .  T
C777        C778   1.406   1_556  A
C777        C782   1.412   1_655  A
C778        C779   1.399       .  A
C778        H783   1.085       .  S
C779        C780   1.413   1_655  A
C779        C786   1.446       .  S
C780        C781   1.406   1_554  A
C781        C782   1.399       .  A
C781        H784   1.085       .  S
C782        C785   1.445       .  S
C785        N787   1.157       .  T
C786        N788   1.158       .  T
C789        C790   1.403       .  A
C789        C794   1.415       .  A
C790        C791   1.403       .  A
C790        H795   1.085       .  S
C791        C792   1.412       .  A
C791        C798   1.445       .  S
C792        C793   1.401       .  A
C793        C794   1.402       .  A
C793        H796   1.085       .  S
C794        C797   1.445       .  S
C797        N799   1.157       .  T
C798        N800   1.157       .  T
C801        C802   1.407       .  A
C801        C806   1.414       .  A
C802        C803   1.390       .  A
C802        H807   1.085       .  S
C803        C804   1.408       .  A
C803        C810   1.446       .  S
C804        C805   1.406       .  A
C805        C806   1.405       .  A
C805        H808   1.085       .  S
C806        C809   1.443       .  S
C809        N811   1.157   1_556  T
C810        N812   1.157       .  T
C813        C814   1.404       .  A
C813        C818   1.409   1_554  A
C814        C815   1.403   1_554  A
C814        H819   1.086       .  S
C815        C816   1.416       .  A
C815        C822   1.444       .  S
C816        C817   1.410       .  A
C817        C818   1.398       .  A
C817        H820   1.085       .  S
C818        C821   1.445       .  S
C821        N823   1.157       .  T
C822        N824   1.157       .  T
C825        C826   1.404       .  A
C825        C830   1.405       .  A
C826        C827   1.401       .  A
C826        H831   1.085       .  S
C827        C828   1.414       .  A
C827        C834   1.444       .  S
C828        C829   1.408       .  A
C829        C830   1.392       .  A
C829        H832   1.085       .  S
C830        C833   1.446       .  S
C833        N835   1.157       .  T
C834        N836   1.157       .  T
C837        C838   1.407       .  A
C837        C842   1.412       .  A
C838        C839   1.407       .  A
C838        H843   1.085   1_545  S
C839        C840   1.415       .  A
C839        C846   1.444   1_545  S
C840        C841   1.404       .  A
C841        C842   1.394       .  A
C841        H844   1.085       .  S
C842        C845   1.446       .  S
C845        N847   1.157       .  T
C846        N848   1.157       .  T
C849        C850   1.405       .  A
C849        C854   1.417       .  A
C850        C851   1.398       .  A
C850        H855   1.085       .  S
C851        C852   1.419       .  A
C851        C858   1.445       .  S
C852        C853   1.408       .  A
C853        C854   1.404       .  A
C853        H856   1.084       .  S
C854        C857   1.445       .  S
C857        N859   1.158       .  T
C858        N860   1.157       .  T
C861        C862   1.406       .  A
C861        C866   1.411       .  A
C862        C863   1.405       .  A
C862        H867   1.085       .  S
C863        C864   1.419       .  A
C863        C870   1.445       .  S
C864        C865   1.409       .  A
C865        C866   1.399       .  A
C865        H868   1.084       .  S
C866        C869   1.444       .  S
C869        N871   1.157       .  T
C870        N872   1.158       .  T
C873        C874   1.409       .  A
C873        C878   1.422       .  A
C874        C875   1.401       .  A
C874        H879   1.085       .  S
C875        C876   1.412       .  A
C875        C882   1.444       .  S
C876        C877   1.402       .  A
C877        C878   1.399       .  A
C877        H880   1.086       .  S
C878        C881   1.445       .  S
C881        N883   1.158       .  T
C882        N884   1.157       .  T
C885        C886   1.407   1_455  A
C885        C890   1.417       .  A
C886        C887   1.397       .  A
C886        H891   1.086       .  S
C887        C888   1.414       .  A
C887        C894   1.445       .  S
C888        C889   1.406   1_655  A
C889        C890   1.399       .  A
C889        H892   1.086       .  S
C890        C893   1.444       .  S
C893        N895   1.157       .  T
C894        N896   1.157       .  T
C897        C898   1.403       .  A
C897        C902   1.415       .  A
C898        C899   1.400       .  A
C898        H903   1.085       .  S
C899        C900   1.421       .  A
C899        C906   1.445       .  S
C900        C901   1.410       .  A
C901        C902   1.411       .  A
C901        H904   1.084       .  S
C902        C905   1.444       .  S
C905        N907   1.157       .  T
C906        N908   1.157       .  T
C909        C910   1.403       .  A
C909        C914   1.415       .  A
C910        C911   1.401       .  A
C910        H915   1.085       .  S
C911        C912   1.423       .  A
C911        C918   1.445       .  S
C912        C913   1.408       .  A
C913        C914   1.404       .  A
C913        H916   1.084       .  S
C914        C917   1.444       .  S
C917        N919   1.157   1_655  T
C918        N920   1.157       .  T
C921        C922   1.406       .  A
C921        C926   1.416       .  A
C922        C923   1.405       .  A
C922        H927   1.084       .  S
C923        C924   1.420       .  A
C923        C930   1.445       .  S
C924        C925   1.408       .  A
C925        C926   1.403       .  A
C925        H928   1.084       .  S
C926        C929   1.444       .  S
C929        N931   1.157       .  T
C930        N932   1.158       .  T
C933        C934   1.400       .  A
C933        C938   1.412       .  A
C934        C935   1.392       .  A
C934        H939   1.086       .  S
C935        C936   1.420       .  A
C935        C942   1.447       .  S
C936        C937   1.407       .  A
C937        C938   1.404       .  A
C937        H940   1.084       .  S
C938        C941   1.444       .  S
C941        N943   1.157       .  T
C942        N944   1.158       .  T
C945        C946   1.406       .  A
C945        C950   1.415       .  A
C946        C947   1.400       .  A
C946        H951   1.084       .  S
C947        C948   1.418       .  A
C947        C954   1.445       .  S
C948        C949   1.409       .  A
C949        C950   1.402       .  A
C949        H952   1.084       .  S
C950        C953   1.444       .  S
C953        N955   1.157       .  T
C954        N956   1.157       .  T
C957        C958   1.409       .  A
C957        C962   1.413       .  A
C958        C959   1.392       .  A
C958        H963   1.085       .  S
C959        C960   1.406       .  A
C959        C966   1.446       .  S
C960        C961   1.406       .  A
C961        C962   1.404       .  A
C961        H964   1.085       .  S
C962        C965   1.443       .  S
C965        N967   1.157       .  T
C966        N968   1.157       .  T
C969        C970   1.407       .  A
C969        C974   1.412       .  A
C970        C971   1.402       .  A
C970        H975   1.085       .  S
C971        C972   1.413       .  A
C971        C978   1.445       .  S
C972        C973   1.405       .  A
C973        C974   1.398       .  A
C973        H976   1.085       .  S
C974        C977   1.444       .  S
C977        N979   1.157       .  T
C978        N980   1.157       .  T
C981        C982   1.408       .  A
C981        C986   1.418       .  A
C982        C983   1.395       .  A
C982        H987   1.085       .  S
C983        C984   1.409       .  A
C983        C990   1.445       .  S
C984        C985   1.405       .  A
C985        C986   1.408       .  A
C985        H988   1.085   1_545  S
C986        C989   1.444   1_545  S
C989        N991   1.158       .  T
C990        N992   1.157       .  T
C993        C994   1.402       .  A
C993        C998   1.415       .  A
C994        C995   1.402       .  A
C994        H999   1.085       .  S
C995        C996   1.423       .  A
C995       C1002   1.445       .  S
C996        C997   1.407       .  A
C997        C998   1.402       .  A
C997       H1000   1.084       .  S
C998       C1001   1.445       .  S
C1001      N1003   1.157       .  T
C1002      N1004   1.157       .  T
C1005      C1006   1.407       .  A
C1005      C1010   1.414       .  A
C1006      C1007   1.400       .  A
C1006      H1011   1.085       .  S
C1007      C1008   1.416       .  A
C1007      C1014   1.444       .  S
C1008      C1009   1.406       .  A
C1009      C1010   1.395       .  A
C1009      H1012   1.085       .  S
C1010      C1013   1.445       .  S
C1013      N1015   1.157       .  T
C1014      N1016   1.157       .  T
C1017      C1018   1.404       .  A
C1017      C1022   1.407       .  A
C1018      C1019   1.403       .  A
C1018      H1023   1.086       .  S
C1019      C1020   1.415       .  A
C1019      C1026   1.444       .  S
C1020      C1021   1.409       .  A
C1021      C1022   1.399       .  A
C1021      H1024   1.085       .  S
C1022      C1025   1.444       .  S
C1025      N1027   1.157       .  T
C1026      N1028   1.157       .  T
C1029      C1030   1.404       .  A
C1029      C1034   1.413       .  A
C1030      C1031   1.401       .  A
C1030      H1035   1.085       .  S
C1031      C1032   1.420       .  A
C1031      C1038   1.445       .  S
C1032      C1033   1.408       .  A
C1033      C1034   1.403       .  A
C1033      H1036   1.084       .  S
C1034      C1037   1.444       .  S
C1037      N1039   1.157       .  T
C1038      N1040   1.158       .  T
C1041      C1042   1.405       .  A
C1041      C1046   1.415   1_556  A
C1042      C1043   1.394       .  A
C1042      H1047   1.086       .  S
C1043      C1044   1.413   1_556  A
C1043      C1050   1.445       .  S
C1044      C1045   1.405       .  A
C1045      C1046   1.398       .  A
C1045      H1048   1.086       .  S
C1046      C1049   1.445       .  S
C1049      N1051   1.157       .  T
C1050      N1052   1.157       .  T
C1053      C1054   1.407       .  A
C1053      C1058   1.414       .  A
C1054      C1055   1.402       .  A
C1054      H1059   1.085       .  S
C1055      C1056   1.409       .  A
C1055      C1062   1.444       .  S
C1056      C1057   1.402       .  A
C1057      C1058   1.403       .  A
C1057      H1060   1.085       .  S
C1058      C1061   1.444       .  S
C1061      N1063   1.157       .  T
C1062      N1064   1.157       .  T
C1065      C1066   1.406   1_554  A
C1065      C1070   1.415       .  A
C1066      C1067   1.402       .  A
C1066      H1071   1.085       .  S
C1067      C1068   1.418       .  A
C1067      C1074   1.444       .  S
C1068      C1069   1.408       .  A
C1069      C1070   1.398   1_556  A
C1069      H1072   1.084   1_556  S
C1070      C1073   1.445       .  S
C1073      N1075   1.157       .  T
C1074      N1076   1.157       .  T
C1077      C1078   1.404       .  A
C1077      C1082   1.412       .  A
C1078      C1079   1.402       .  A
C1078      H1083   1.085       .  S
C1079      C1080   1.421       .  A
C1079      C1086   1.445       .  S
C1080      C1081   1.408       .  A
C1081      C1082   1.402       .  A
C1081      H1084   1.084       .  S
C1082      C1085   1.444       .  S
C1085      N1087   1.157       .  T
C1086      N1088   1.158       .  T
C1089      C1090   1.409       .  A
C1089      C1094   1.419       .  A
C1090      C1091   1.401   1_554  A
C1090      H1095   1.084   1_554  S
C1091      C1092   1.415       .  A
C1091      C1098   1.445       .  S
C1092      C1093   1.406   1_556  A
C1093      C1094   1.404       .  A
C1093      H1096   1.084       .  S
C1094      C1097   1.444       .  S
C1097      N1099   1.157       .  T
C1098      N1100   1.157       .  T
C1101      C1102   1.408       .  A
C1101      C1106   1.421       .  A
C1102      C1103   1.402       .  A
C1102      H1107   1.084       .  S
C1103      C1104   1.413       .  A
C1103      C1110   1.444       .  S
C1104      C1105   1.402       .  A
C1105      C1106   1.398       .  A
C1105      H1108   1.085       .  S
C1106      C1109   1.445       .  S
C1109      N1111   1.158       .  T
C1110      N1112   1.157       .  T
C1113      C1114   1.405       .  A
C1113      C1118   1.414       .  A
C1114      C1115   1.405       .  A
C1114      H1119   1.085       .  S
C1115      C1116   1.415       .  A
C1115      C1122   1.444       .  S
C1116      C1117   1.403       .  A
C1117      C1118   1.393       .  A
C1117      H1120   1.085       .  S
C1118      C1121   1.446       .  S
C1121      N1123   1.157       .  T
C1122      N1124   1.157       .  T
C1125      C1126   1.403       .  A
C1125      C1130   1.410       .  A
C1126      C1127   1.402       .  A
C1126      H1131   1.085       .  S
C1127      C1128   1.418       .  A
C1127      C1134   1.445       .  S
C1128      C1129   1.409       .  A
C1129      C1130   1.397       .  A
C1129      H1132   1.084       .  S
C1130      C1133   1.445       .  S
C1133      N1135   1.157       .  T
C1134      N1136   1.157       .  T
C1137      C1138   1.407       .  A
C1137      C1142   1.418       .  A
C1138      C1139   1.399       .  A
C1138      H1143   1.084       .  S
C1139      C1140   1.414       .  A
C1139      C1146   1.445       .  S
C1140      C1141   1.406       .  A
C1141      C1142   1.404       .  A
C1141      H1144   1.085       .  S
C1142      C1145   1.444       .  S
C1145      N1147   1.157       .  T
C1146      N1148   1.157       .  T
C1149      C1150   1.406       .  A
C1149      C1154   1.410       .  A
C1150      C1151   1.405       .  A
C1150      H1155   1.085       .  S
C1151      C1152   1.417       .  A
C1151      C1158   1.444       .  S
C1152      C1153   1.408       .  A
C1153      C1154   1.390       .  A
C1153      H1156   1.085       .  S
C1154      C1157   1.446       .  S
C1157      N1159   1.157       .  T
C1158      N1160   1.157       .  T
C1161      C1162   1.409       .  A
C1161      C1166   1.419       .  A
C1162      C1163   1.399       .  A
C1162      H1167   1.084       .  S
C1163      C1164   1.411       .  A
C1163      C1170   1.445       .  S
C1164      C1165   1.403       .  A
C1165      C1166   1.401       .  A
C1165      H1168   1.085       .  S
C1166      C1169   1.445       .  S
C1169      N1171   1.158       .  T
C1170      N1172   1.157       .  T
C1173      C1174   1.406       .  A
C1173      C1178   1.405       .  A
C1174      C1175   1.404       .  A
C1174      H1179   1.086       .  S
C1175      C1176   1.412       .  A
C1175      C1182   1.443       .  S
C1176      C1177   1.408       .  A
C1177      C1178   1.391       .  A
C1177      H1180   1.086       .  S
C1178      C1181   1.446       .  S
C1181      N1183   1.157       .  T
C1182      N1184   1.157       .  T
C1185      C1186   1.405       .  A
C1185      C1190   1.412       .  A
C1186      C1187   1.399       .  A
C1186      H1191   1.085       .  S
C1187      C1188   1.413       .  A
C1187      C1194   1.445       .  S
C1188      C1189   1.405       .  A
C1189      C1190   1.398       .  A
C1189      H1192   1.085       .  S
C1190      C1193   1.445       .  S
C1193      N1195   1.157       .  T
C1194      N1196   1.157       .  T
C1197      C1198   1.403       .  A
C1197      C1202   1.415       .  A
C1198      C1199   1.399       .  A
C1198      H1203   1.085       .  S
C1199      C1200   1.417       .  A
C1199      C1206   1.445       .  S
C1200      C1201   1.408       .  A
C1201      C1202   1.408       .  A
C1201      H1204   1.084   1_565  S
C1202      C1205   1.444   1_565  S
C1205      N1207   1.157       .  T
C1206      N1208   1.157       .  T
C1209      C1210   1.403       .  A
C1209      C1214   1.415       .  A
C1210      C1211   1.404       .  A
C1210      H1215   1.084       .  S
C1211      C1212   1.422       .  A
C1211      C1218   1.444       .  S
C1212      C1213   1.408       .  A
C1213      C1214   1.402       .  A
C1213      H1216   1.084       .  S
C1214      C1217   1.444       .  S
C1217      N1219   1.157       .  T
C1218      N1220   1.157       .  T
C1221      C1222   1.405       .  A
C1221      C1226   1.413       .  A
C1222      C1223   1.399       .  A
C1222      H1227   1.085       .  S
C1223      C1224   1.413       .  A
C1223      C1230   1.445       .  S
C1224      C1225   1.405       .  A
C1225      C1226   1.400       .  A
C1225      H1228   1.085       .  S
C1226      C1229   1.445       .  S
C1229      N1231   1.157       .  T
C1230      N1232   1.157       .  T
C1233      C1234   1.405       .  A
C1233      C1238   1.411       .  A
C1234      C1235   1.404       .  A
C1234      H1239   1.085       .  S
C1235      C1236   1.417       .  A
C1235      C1242   1.444       .  S
C1236      C1237   1.411       .  A
C1237      C1238   1.401       .  A
C1237      H1240   1.084       .  S
C1238      C1241   1.445       .  S
C1241      N1243   1.157       .  T
C1242      N1244   1.157       .  T
C1245      C1246   1.409       .  A
C1245      C1250   1.421       .  A
C1246      C1247   1.405       .  A
C1246      H1251   1.084       .  S
C1247      C1248   1.414       .  A
C1247      C1254   1.444       .  S
C1248      C1249   1.404       .  A
C1249      C1250   1.400       .  A
C1249      H1252   1.085       .  S
C1250      C1253   1.445       .  S
C1253      N1255   1.158       .  T
C1254      N1256   1.157       .  T
C1257      C1258   1.407       .  A
C1257      C1262   1.417       .  A
C1258      C1259   1.399       .  A
C1258      H1263   1.086       .  S
C1259      C1260   1.413       .  A
C1259      C1266   1.445       .  S
C1260      C1261   1.407       .  A
C1261      C1262   1.410       .  A
C1261      H1264   1.085       .  S
C1262      C1265   1.443       .  S
C1265      N1267   1.157       .  T
C1266      N1268   1.157       .  T
C1269      C1270   1.405       .  A
C1269      C1274   1.414       .  A
C1270      C1271   1.405       .  A
C1270      H1275   1.085       .  S
C1271      C1272   1.421       .  A
C1271      C1278   1.444       .  S
C1272      C1273   1.409       .  A
C1273      C1274   1.403       .  A
C1273      H1276   1.084       .  S
C1274      C1277   1.443       .  S
C1277      N1279   1.157       .  T
C1278      N1280   1.157       .  T
C1281      C1282   1.405       .  A
C1281      C1286   1.414       .  A
C1282      C1283   1.400       .  A
C1282      H1287   1.085       .  S
C1283      C1284   1.418       .  A
C1283      C1290   1.445       .  S
C1284      C1285   1.407       .  A
C1285      C1286   1.401       .  A
C1285      H1288   1.085       .  S
C1286      C1289   1.444       .  S
C1289      N1291   1.157       .  T
C1290      N1292   1.157       .  T
C1293      C1294   1.408       .  A
C1293      C1298   1.422       .  A
C1294      C1295   1.406       .  A
C1294      H1299   1.084       .  S
C1295      C1296   1.413       .  A
C1295      C1302   1.444       .  S
C1296      C1297   1.398       .  A
C1297      C1298   1.392       .  A
C1297      H1300   1.085       .  S
C1298      C1301   1.446       .  S
C1301      N1303   1.158       .  T
C1302      N1304   1.157       .  T
C1305      C1306   1.405       .  A
C1305      C1310   1.413   1_455  A
C1306      C1307   1.400       .  A
C1306      H1311   1.085       .  S
C1307      C1308   1.412   1_455  A
C1307      C1314   1.444       .  S
C1308      C1309   1.404       .  A
C1309      C1310   1.398       .  A
C1309      H1312   1.086       .  S
C1310      C1313   1.445       .  S
C1313      N1315   1.157       .  T
C1314      N1316   1.157       .  T
C1317      C1318   1.411       .  A
C1317      C1322   1.417       .  A
C1318      C1319   1.401       .  A
C1318      H1323   1.085       .  S
C1319      C1320   1.410       .  A
C1319      C1326   1.445       .  S
C1320      C1321   1.404       .  A
C1321      C1322   1.404       .  A
C1321      H1324   1.085       .  S
C1322      C1325   1.444       .  S
C1325      N1327   1.157       .  T
C1326      N1328   1.157       .  T
C1329      C1330   1.397       .  A
C1329      C1334   1.413       .  A
C1330      C1331   1.391       .  A
C1330      H1335   1.086       .  S
C1331      C1332   1.418       .  A
C1331      C1338   1.446       .  S
C1332      C1333   1.403       .  A
C1333      C1334   1.403       .  A
C1333      H1336   1.085       .  S
C1334      C1337   1.444       .  S
C1337      N1339   1.157   1_554  T
C1338      N1340   1.157       .  T
C1341      C1342   1.406       .  A
C1341      C1346   1.414   1_556  A
C1342      C1343   1.396       .  A
C1342      H1347   1.086       .  S
C1343      C1344   1.416   1_556  A
C1343      C1350   1.446       .  S
C1344      C1345   1.406       .  A
C1345      C1346   1.395       .  A
C1345      H1348   1.086       .  S
C1346      C1349   1.444       .  S
C1349      N1351   1.157       .  T
C1350      N1352   1.158       .  T
C1353      C1354   1.409       .  A
C1353      C1358   1.419       .  A
C1354      C1355   1.397       .  A
C1354      H1359   1.084       .  S
C1355      C1356   1.410       .  A
C1355      C1362   1.446       .  S
C1356      C1357   1.403       .  A
C1357      C1358   1.407       .  A
C1357      H1360   1.085   1_565  S
C1358      C1361   1.443   1_565  S
C1361      N1363   1.157       .  T
C1362      N1364   1.157       .  T
C1365      C1366   1.410       .  A
C1365      C1370   1.417       .  A
C1366      C1367   1.400       .  A
C1366      H1371   1.084       .  S
C1367      C1368   1.409   1_554  A
C1367      C1374   1.445       .  S
C1368      C1369   1.404       .  A
C1369      C1370   1.403   1_556  A
C1369      H1372   1.085       .  S
C1370      C1373   1.444       .  S
C1373      N1375   1.157       .  T
C1374      N1376   1.157       .  T
C1377      C1378   1.398       .  A
C1377      C1382   1.412       .  A
C1378      C1379   1.392       .  A
C1378      H1383   1.086       .  S
C1379      C1380   1.418       .  A
C1379      C1386   1.446       .  S
C1380      C1381   1.404       .  A
C1381      C1382   1.402       .  A
C1381      H1384   1.085       .  S
C1382      C1385   1.443       .  S
C1385      N1387   1.157       .  T
C1386      N1388   1.157       .  T
C1389      C1390   1.410       .  A
C1389      C1394   1.419       .  A
C1390      C1391   1.402       .  A
C1390      H1395   1.084       .  S
C1391      C1392   1.413       .  A
C1391      C1398   1.445   1_565  S
C1392      C1393   1.406       .  A
C1393      C1394   1.403       .  A
C1393      H1396   1.085       .  S
C1394      C1397   1.445       .  S
C1397      N1399   1.158       .  T
C1398      N1400   1.157       .  T
C1401      C1402   1.409       .  A
C1401      C1406   1.418       .  A
C1402      C1403   1.401       .  A
C1402      H1407   1.085       .  S
C1403      C1404   1.412       .  A
C1403      C1410   1.444       .  S
C1404      C1405   1.404       .  A
C1405      C1406   1.402       .  A
C1405      H1408   1.086       .  S
C1406      C1409   1.445       .  S
C1409      N1411   1.158       .  T
C1410      N1412   1.157       .  T
C1413      C1414   1.407       .  A
C1413      C1418   1.416       .  A
C1414      C1415   1.404       .  A
C1414      H1419   1.085       .  S
C1415      C1416   1.418       .  A
C1415      C1422   1.444       .  S
C1416      C1417   1.408       .  A
C1417      C1418   1.400       .  A
C1417      H1420   1.085       .  S
C1418      C1421   1.445       .  S
C1421      N1423   1.157       .  T
C1422      N1424   1.157       .  T
C1425      C1426   1.408       .  A
C1425      C1430   1.414       .  A
C1426      C1427   1.392       .  A
C1426      H1431   1.085       .  S
C1427      C1428   1.407       .  A
C1427      C1434   1.446       .  S
C1428      C1429   1.406       .  A
C1429      C1430   1.404       .  A
C1429      H1432   1.085       .  S
C1430      C1433   1.443       .  S
C1433      N1435   1.157       .  T
C1434      N1436   1.157       .  T
C1437      C1438   1.408       .  A
C1437      C1442   1.416       .  A
C1438      C1439   1.410       .  A
C1438      H1443   1.084       .  S
C1439      C1440   1.415       .  A
C1439      C1446   1.443       .  S
C1440      C1441   1.403       .  A
C1441      C1442   1.396       .  A
C1441      H1444   1.085       .  S
C1442      C1445   1.446       .  S
C1445      N1447   1.157       .  T
C1446      N1448   1.157       .  T
C1449      C1450   1.407       .  A
C1449      C1454   1.414       .  A
C1450      C1451   1.401       .  A
C1450      H1455   1.084       .  S
C1451      C1452   1.418       .  A
C1451      C1458   1.445       .  S
C1452      C1453   1.408       .  A
C1453      C1454   1.401       .  A
C1453      H1456   1.084   1_565  S
C1454      C1457   1.444       .  S
C1457      N1459   1.157       .  T
C1458      N1460   1.158       .  T
C1461      C1462   1.405       .  A
C1461      C1466   1.413       .  A
C1462      C1463   1.404       .  A
C1462      H1467   1.084       .  S
C1463      C1464   1.420       .  A
C1463      C1470   1.444       .  S
C1464      C1465   1.408       .  A
C1465      C1466   1.398       .  A
C1465      H1468   1.084       .  S
C1466      C1469   1.444       .  S
C1469      N1471   1.157       .  T
C1470      N1472   1.158       .  T
C1473      C1474   1.404       .  A
C1473      C1478   1.415       .  A
C1474      C1475   1.401       .  A
C1474      H1479   1.085       .  S
C1475      C1476   1.420       .  A
C1475      C1482   1.445       .  S
C1476      C1477   1.407       .  A
C1477      C1478   1.402       .  A
C1477      H1480   1.084       .  S
C1478      C1481   1.444       .  S
C1481      N1483   1.157       .  T
C1482      N1484   1.158   1_565  T
C1485      C1486   1.406       .  A
C1485      C1490   1.406       .  A
C1486      C1487   1.403       .  A
C1486      H1491   1.084       .  S
C1487      C1488   1.413       .  A
C1487      C1494   1.443       .  S
C1488      C1489   1.409       .  A
C1489      C1490   1.392       .  A
C1489      H1492   1.084       .  S
C1490      C1493   1.446       .  S
C1493      N1495   1.157       .  T
C1494      N1496   1.157   1_556  T
C1497      C1498   1.401   1_556  A
C1497      C1502   1.415       .  A
C1498      C1499   1.400       .  A
C1498      H1503   1.085       .  S
C1499      C1500   1.423       .  A
C1499      C1506   1.445       .  S
C1500      C1501   1.408       .  A
C1501      C1502   1.404   1_554  A
C1501      H1504   1.084       .  S
C1502      C1505   1.445       .  S
C1505      N1507   1.157       .  T
C1506      N1508   1.157       .  T
C1509      C1510   1.406       .  A
C1509      C1514   1.416       .  A
C1510      C1511   1.401       .  A
C1510      H1515   1.085       .  S
C1511      C1512   1.418       .  A
C1511      C1518   1.445       .  S
C1512      C1513   1.407       .  A
C1513      C1514   1.402       .  A
C1513      H1516   1.084       .  S
C1514      C1517   1.445       .  S
C1517      N1519   1.157   1_545  T
C1518      N1520   1.157       .  T
C1521      C1522   1.407   1_554  A
C1521      C1526   1.416       .  A
C1522      C1523   1.401       .  A
C1522      H1527   1.084   1_545  S
C1523      C1524   1.416       .  A
C1523      C1530   1.444       .  S
C1524      C1525   1.408       .  A
C1525      C1526   1.400   1_556  A
C1525      H1528   1.084   1_556  S
C1526      C1529   1.445       .  S
C1529      N1531   1.157       .  T
C1530      N1532   1.157       .  T
C1533      C1534   1.410       .  A
C1533      C1538   1.416       .  A
C1534      C1535   1.395       .  A
C1534      H1539   1.085       .  S
C1535      C1536   1.409       .  A
C1535      C1542   1.446       .  S
C1536      C1537   1.406       .  A
C1537      C1538   1.406       .  A
C1537      H1540   1.085       .  S
C1538      C1541   1.443       .  S
C1541      N1543   1.157       .  T
C1542      N1544   1.157       .  T
C1545      C1546   1.403       .  A
C1545      C1550   1.414       .  A
C1546      C1547   1.397   1_545  A
C1546      H1551   1.085       .  S
C1547      C1548   1.411       .  A
C1547      C1554   1.443       .  S
C1548      C1549   1.403       .  A
C1549      C1550   1.399   1_565  A
C1549      H1552   1.085       .  S
C1550      C1553   1.445       .  S
C1553      N1555   1.157       .  T
C1554      N1556   1.157       .  T
C1557      C1558   1.405       .  A
C1557      C1562   1.410       .  A
C1558      C1559   1.407       .  A
C1558      H1563   1.085       .  S
C1559      C1560   1.417       .  A
C1559      C1566   1.443       .  S
C1560      C1561   1.408       .  A
C1561      C1562   1.396       .  A
C1561      H1564   1.085       .  S
C1562      C1565   1.446       .  S
C1565      N1567   1.157       .  T
C1566      N1568   1.157       .  T
C1569      C1570   1.409       .  A
C1569      C1574   1.418       .  A
C1570      C1571   1.399       .  A
C1570      H1575   1.084       .  S
C1571      C1572   1.414       .  A
C1571      C1578   1.445       .  S
C1572      C1573   1.405       .  A
C1573      C1574   1.400       .  A
C1573      H1576   1.084       .  S
C1574      C1577   1.444       .  S
C1577      N1579   1.157       .  T
C1578      N1580   1.157       .  T
C1581      C1582   1.408       .  A
C1581      C1586   1.418       .  A
C1582      C1583   1.399       .  A
C1582      H1587   1.085       .  S
C1583      C1584   1.416       .  A
C1583      C1590   1.445       .  S
C1584      C1585   1.407       .  A
C1585      C1586   1.405       .  A
C1585      H1588   1.085       .  S
C1586      C1589   1.444       .  S
C1589      N1591   1.157       .  T
C1590      N1592   1.157       .  T
C1593      C1594   1.411       .  A
C1593      C1598   1.417       .  A
C1594      C1595   1.402       .  A
C1594      H1599   1.084       .  S
C1595      C1596   1.410       .  A
C1595      C1602   1.445   1_545  S
C1596      C1597   1.405       .  A
C1597      C1598   1.405       .  A
C1597      H1600   1.085       .  S
C1598      C1601   1.444       .  S
C1601      N1603   1.157       .  T
C1602      N1604   1.157       .  T
C1605      C1606   1.407       .  A
C1605      C1610   1.415       .  A
C1606      C1607   1.394       .  A
C1606      H1611   1.084       .  S
C1607      C1608   1.407       .  A
C1607      C1614   1.446       .  S
C1608      C1609   1.405       .  A
C1609      C1610   1.405       .  A
C1609      H1612   1.084       .  S
C1610      C1613   1.444       .  S
C1613      N1615   1.157       .  T
C1614      N1616   1.157       .  T
C1617      C1618   1.404       .  A
C1617      C1622   1.413       .  A
C1618      C1619   1.396       .  A
C1618      H1623   1.085       .  S
C1619      C1620   1.419       .  A
C1619      C1626   1.445       .  S
C1620      C1621   1.411       .  A
C1621      C1622   1.405       .  A
C1621      H1624   1.084   1_565  S
C1622      C1625   1.444       .  S
C1625      N1627   1.157       .  T
C1626      N1628   1.157       .  T
C1629      C1630   1.406       .  A
C1629      C1634   1.417       .  A
C1630      C1631   1.402       .  A
C1630      H1635   1.084       .  S
C1631      C1632   1.419       .  A
C1631      C1638   1.445       .  S
C1632      C1633   1.408       .  A
C1633      C1634   1.403       .  A
C1633      H1636   1.084       .  S
C1634      C1637   1.445       .  S
C1637      N1639   1.157       .  T
C1638      N1640   1.157       .  T
C1641      C1642   1.407       .  A
C1641      C1646   1.417       .  A
C1642      C1643   1.401       .  A
C1642      H1647   1.085       .  S
C1643      C1644   1.415       .  A
C1643      C1650   1.444       .  S
C1644      C1645   1.406       .  A
C1645      C1646   1.401       .  A
C1645      H1648   1.085       .  S
C1646      C1649   1.445       .  S
C1649      N1651   1.157       .  T
C1650      N1652   1.157   1_565  T
C1653      C1654   1.406       .  A
C1653      C1658   1.418       .  A
C1654      C1655   1.404       .  A
C1654      H1659   1.085       .  S
C1655      C1656   1.413       .  A
C1655      C1662   1.444       .  S
C1656      C1657   1.397       .  A
C1657      C1658   1.393       .  A
C1657      H1660   1.086       .  S
C1658      C1661   1.445       .  S
C1661      N1663   1.157       .  T
C1662      N1664   1.157   1_554  T
C1665      C1666   1.408       .  A
C1665      C1670   1.415   1_556  A
C1666      C1667   1.399   1_545  A
C1666      H1671   1.085       .  S
C1667      C1668   1.415   1_556  A
C1667      C1674   1.445       .  S
C1668      C1669   1.407       .  A
C1669      C1670   1.398   1_565  A
C1669      H1672   1.085       .  S
C1670      C1673   1.444       .  S
C1673      N1675   1.157       .  T
C1674      N1676   1.157       .  T
C1677      C1678   1.405       .  A
C1677      C1682   1.416       .  A
C1678      C1679   1.398       .  A
C1678      H1683   1.085       .  S
C1679      C1680   1.416       .  A
C1679      C1686   1.445       .  S
C1680      C1681   1.407       .  A
C1681      C1682   1.408       .  A
C1681      H1684   1.084       .  S
C1682      C1685   1.443       .  S
C1685      N1687   1.157       .  T
C1686      N1688   1.157       .  T
C1689      C1690   1.412       .  A
C1689      C1694   1.417       .  A
C1690      C1691   1.402       .  A
C1690      H1695   1.085       .  S
C1691      C1692   1.409   1_554  A
C1691      C1698   1.445   1_565  S
C1692      C1693   1.403       .  A
C1693      C1694   1.401   1_556  A
C1693      H1696   1.086       .  S
C1694      C1697   1.444       .  S
C1697      N1699   1.157       .  T
C1698      N1700   1.157       .  T
C1701      C1702   1.412   1_554  A
C1701      C1706   1.420       .  A
C1702      C1703   1.407       .  A
C1702      H1707   1.084       .  S
C1703      C1704   1.414       .  A
C1703      C1710   1.444       .  S
C1704      C1705   1.405   1_556  A
C1705      C1706   1.402       .  A
C1705      H1708   1.085       .  S
C1706      C1709   1.444       .  S
C1709      N1711   1.157       .  T
C1710      N1712   1.157       .  T
C1713      C1714   1.406       .  A
C1713      C1718   1.417       .  A
C1714      C1715   1.402       .  A
C1714      H1719   1.085       .  S
C1715      C1716   1.417       .  A
C1715      C1722   1.445       .  S
C1716      C1717   1.406       .  A
C1717      C1718   1.401       .  A
C1717      H1720   1.085       .  S
C1718      C1721   1.445       .  S
C1721      N1723   1.157   1_565  T
C1722      N1724   1.157       .  T
C1725      C1726   1.406       .  A
C1725      C1730   1.407       .  A
C1726      C1727   1.404       .  A
C1726      H1731   1.084       .  S
C1727      C1728   1.412       .  A
C1727      C1734   1.443       .  S
C1728      C1729   1.407       .  A
C1729      C1730   1.392       .  A
C1729      H1732   1.084       .  S
C1730      C1733   1.445       .  S
C1733      N1735   1.157       .  T
C1734      N1736   1.157       .  T
C1737      C1738   1.405       .  A
C1737      C1742   1.411       .  A
C1738      C1739   1.398   1_565  A
C1738      H1743   1.085       .  S
C1739      C1740   1.410       .  A
C1739      C1746   1.445       .  S
C1740      C1741   1.405       .  A
C1741      C1742   1.400   1_545  A
C1741      H1744   1.085       .  S
C1742      C1745   1.445       .  S
C1745      N1747   1.158       .  T
C1746      N1748   1.157       .  T
C1749      C1750   1.404       .  A
C1749      C1754   1.416       .  A
C1750      C1751   1.402       .  A
C1750      H1755   1.085       .  S
C1751      C1752   1.422       .  A
C1751      C1758   1.444       .  S
C1752      C1753   1.408       .  A
C1753      C1754   1.403       .  A
C1753      H1756   1.084       .  S
C1754      C1757   1.445       .  S
C1757      N1759   1.157       .  T
C1758      N1760   1.157       .  T
C1761      C1762   1.407       .  A
C1761      C1766   1.420       .  A
C1762      C1763   1.402       .  A
C1762      H1767   1.084       .  S
C1763      C1764   1.417       .  A
C1763      C1770   1.444       .  S
C1764      C1765   1.405       .  A
C1765      C1766   1.401       .  A
C1765      H1768   1.084       .  S
C1766      C1769   1.445       .  S
C1769      N1771   1.157   1_545  T
C1770      N1772   1.157       .  T
C1773      C1774   1.409       .  A
C1773      C1778   1.421       .  A
C1774      C1775   1.404       .  A
C1774      H1779   1.085       .  S
C1775      C1776   1.415       .  A
C1775      C1782   1.444   1_545  S
C1776      C1777   1.404       .  A
C1777      C1778   1.403       .  A
C1777      H1780   1.086       .  S
C1778      C1781   1.445       .  S
C1781      N1783   1.158       .  T
C1782      N1784   1.157       .  T
C1785      C1786   1.397       .  A
C1785      C1790   1.413       .  A
C1786      C1787   1.390       .  A
C1786      H1791   1.086       .  S
C1787      C1788   1.419       .  A
C1787      C1794   1.446       .  S
C1788      C1789   1.406       .  A
C1789      C1790   1.404       .  A
C1789      H1792   1.084       .  S
C1790      C1793   1.444       .  S
C1793      N1795   1.157       .  T
C1794      N1796   1.157       .  T
C1797      C1798   1.406   1_455  A
C1797      C1802   1.415       .  A
C1798      C1799   1.397   1_565  A
C1798      H1803   1.086       .  S
C1799      C1800   1.415       .  A
C1799      C1806   1.444       .  S
C1800      C1801   1.408   1_655  A
C1801      C1802   1.398   1_545  A
C1801      H1804   1.086       .  S
C1802      C1805   1.445       .  S
C1805      N1807   1.157       .  T
C1806      N1808   1.157       .  T
C1809      C1810   1.409       .  A
C1809      C1814   1.417       .  A
C1810      C1811   1.397       .  A
C1810      H1815   1.084       .  S
C1811      C1812   1.409       .  A
C1811      C1818   1.445       .  S
C1812      C1813   1.403       .  A
C1813      C1814   1.405       .  A
C1813      H1816   1.084       .  S
C1814      C1817   1.441       .  S
C1817      N1819   1.156       .  T
C1818      N1820   1.157       .  T
C1821      C1822   1.404       .  A
C1821      C1826   1.413       .  A
C1822      C1823   1.405       .  A
C1822      H1827   1.085       .  S
C1823      C1824   1.422       .  A
C1823      C1830   1.444       .  S
C1824      C1825   1.406       .  A
C1825      C1826   1.400       .  A
C1825      H1828   1.085       .  S
C1826      C1829   1.441       .  S
C1829      N1831   1.156   1_455  T
C1830      N1832   1.157       .  T
C1833      C1834   1.406       .  A
C1833      C1838   1.416       .  A
C1834      C1835   1.398       .  A
C1834      H1839   1.085       .  S
C1835      C1836   1.416       .  A
C1835      C1842   1.445       .  S
C1836      C1837   1.407       .  A
C1837      C1838   1.400       .  A
C1837      H1840   1.085       .  S
C1838      C1841   1.445       .  S
C1841      N1843   1.158       .  T
C1842      N1844   1.157       .  T
C1845      C1846   1.408       .  A
C1845      C1850   1.418       .  A
C1846      C1847   1.401       .  A
C1846      H1851   1.085   1_545  S
C1847      C1848   1.415       .  A
C1847      C1854   1.445       .  S
C1848      C1849   1.406       .  A
C1849      C1850   1.401       .  A
C1849      H1852   1.085       .  S
C1850      C1853   1.444       .  S
C1853      N1855   1.157       .  T
C1854      N1856   1.157       .  T
