geometry optimzed in LAMMPS
_audit_creation_date              2020-12-01 
_audit_creation_method            'lammps2cif' 
_symmetry_space_group_name_H-M    'P1' 
_symmetry_Int_Tables_number       1 
_symmetry_cell_setting            triclinic 
loop_ 
_symmetry_equiv_pos_as_xyz 
  x,y,z 
_cell_length_a                    48.67158593 
_cell_length_b                    28.77112372534905 
_cell_length_c                    59.377363437928516 
_cell_angle_alpha                 90.00770595828493 
_cell_angle_beta                  89.78519604224599 
_cell_angle_gamma                 90.20367554440104 
loop_ 
_atom_site_label 
_atom_site_type_symbol 
_atom_site_fract_x 
_atom_site_fract_y 
_atom_site_fract_z 
_atom_site_charge 
Fe1        Fe  0.84175648  0.91585350  0.37098310     1.65800
Fe2        Fe  0.84397757  0.81788433  0.40200976     1.73200
Fe3        Fe  0.78698475  0.84239836  0.37132976     1.54400
O4          O  0.77111109  0.90703591  0.37889806    -0.82300
O5          O  0.82868101  0.75632629  0.38848360    -0.80600
O6          O  0.80552063  0.95372065  0.36920909    -0.84800
O7          O  0.83736624  0.89525661  0.33797443    -0.79600
O8          O  0.77471067  0.81986704  0.40333052    -0.81400
O9          O  0.87755059  0.81370588  0.38089440    -0.84200
C10         C  0.81667552  0.87820100  0.32780166     0.96600
C11         C  0.78038047  0.94705852  0.37411321     1.04000
O12         O  0.82407705  0.85855222  0.38140305    -1.13100
O13         O  0.86086722  0.87312784  0.41980183    -0.75600
O14         O  0.84682836  0.93891341  0.40367730    -0.79100
O15         O  0.79560580  0.86238787  0.33819297    -0.79800
C16         C  0.85649945  0.91668057  0.42035324     0.95500
O17         O  0.88108590  0.88782226  0.37090417    -0.77700
O18         O  0.81247492  0.81918235  0.42460190    -0.82900
C19         C  0.81147736  0.74542121  0.37330689     0.98100
C20         C  0.78673635  0.81510164  0.42224597     1.04000
O21         O  0.79792897  0.77573600  0.36259072    -0.78500
C22         C  0.89140976  0.84756016  0.37314971     1.02300
Fe23       Fe  0.84369648  0.09287635  0.61606993     1.65800
Fe24       Fe  0.84563172  0.18983555  0.58415737     1.73200
Fe25       Fe  0.78870374  0.16503834  0.61551314     1.54400
O26         O  0.77284978  0.10010886  0.60772472    -0.82300
O27         O  0.82973231  0.25118807  0.59750198    -0.80600
O28         O  0.80759556  0.05413696  0.61700776    -0.84800
O29         O  0.83843804  0.11334891  0.64900952    -0.79600
O30         O  0.77677623  0.18900712  0.58371135    -0.81400
O31         O  0.87934922  0.19569796  0.60480710    -0.84200
C32         C  0.81750093  0.12962295  0.65909929     0.96600
C33         C  0.78246286  0.06013350  0.61204344     1.04000
O34         O  0.82590784  0.14934628  0.60528162    -1.13100
O35         O  0.86321516  0.13484206  0.56669259    -0.75600
O36         O  0.84997082  0.06934100  0.58358223    -0.79100
O37         O  0.79643845  0.14445544  0.64864346    -0.79800
C38         C  0.85963259  0.09103464  0.56665116     0.95500
O39         O  0.88257022  0.12275547  0.61692354    -0.77700
O40         O  0.81410478  0.18674755  0.56174951    -0.82900
C41         C  0.81307823  0.26186151  0.61322396     0.98100
C42         C  0.78860841  0.19308067  0.56459760     1.04000
O43         O  0.80019959  0.23134244  0.62454332    -0.78500
C44         C  0.89281680  0.16297334  0.61382157     1.02300
Fe45       Fe  0.14557042  0.90664610  0.37438367     1.65800
Fe46       Fe  0.14224753  0.81038292  0.40703141     1.73200
Fe47       Fe  0.20153057  0.83817654  0.37912894     1.54400
O48         O  0.19499952  0.85325787  0.34510590    -0.82300
O49         O  0.17213069  0.81383076  0.43104293    -0.80600
O50         O  0.15286189  0.88369018  0.34217124    -0.84800
O51         O  0.18088998  0.94745881  0.37323016    -0.79600
O52         O  0.19338823  0.77004903  0.37197752    -0.81400
O53         O  0.12351447  0.86625923  0.42313342    -0.84200
C54         C  0.20569241  0.94319645  0.37936704     0.96600
C55         C  0.17456213  0.86684904  0.33340264     1.04000
O56         O  0.16320844  0.85132231  0.38675957    -1.13100
O57         O  0.10973472  0.80364963  0.38505683    -0.75600
O58         O  0.10680475  0.87654421  0.37306814    -0.79100
O59         O  0.21526797  0.90450486  0.38556764    -0.79800
C60         C  0.09637498  0.83648042  0.37603099     0.95500
O61         O  0.13811044  0.93123659  0.40634371    -0.77700
O62         O  0.15916944  0.74858073  0.39466275    -0.82900
C63         C  0.19815727  0.81477822  0.43035738     0.98100
C64         C  0.17879676  0.73887847  0.38124474     1.04000
O65         O  0.21166983  0.82129171  0.41219266    -0.78500
C66         C  0.12747298  0.91006802  0.42304864     1.02300
Fe67       Fe  0.14612164  0.08276299  0.61844225     1.65800
Fe68       Fe  0.14445235  0.17850388  0.58621932     1.73200
Fe69       Fe  0.20128204  0.15403945  0.61683403     1.54400
O70         O  0.19329887  0.13404754  0.65006148    -0.82300
O71         O  0.17552014  0.17282571  0.56313692    -0.80600
O72         O  0.15069811  0.10470956  0.65115080    -0.84800
O73         O  0.18193284  0.04419539  0.62053166    -0.79600
O74         O  0.19038859  0.22064695  0.62562262    -0.81400
O75         O  0.12524991  0.12296903  0.57021505    -0.84200
C76         C  0.20677808  0.04948472  0.61442213     0.96600
C77         C  0.17212852  0.12000920  0.66089964     1.04000
O78         O  0.16407571  0.13872305  0.60729092    -1.13100
O79         O  0.11163484  0.18617153  0.60798626    -0.75600
O80         O  0.10720500  0.11217988  0.61808648    -0.79100
O81         O  0.21635303  0.08893541  0.60890850    -0.79800
C82         C  0.09735084  0.15279129  0.61578232     0.95500
O83         O  0.14131105  0.05859676  0.58607776    -0.77700
O84         O  0.16179332  0.24005119  0.59811882    -0.82900
C85         C  0.20117772  0.17863946  0.56559328     0.98100
C86         C  0.17846160  0.25101277  0.61369788     1.04000
O87         O  0.21299250  0.17643812  0.58470968    -0.78500
C88         C  0.13023499  0.07960498  0.56965786     1.02300
Fe89       Fe  0.34165452  0.40928541  0.37266118     1.65800
Fe90       Fe  0.34857691  0.31098626  0.40228469     1.73200
Fe91       Fe  0.28853213  0.33437272  0.37573603     1.54400
O92         O  0.27283492  0.39783731  0.38567497    -0.82300
O93         O  0.33266320  0.24915621  0.38920282    -0.80600
O94         O  0.30453247  0.44445242  0.37112327    -0.84800
O95         O  0.33645469  0.38746236  0.34011114    -0.79600
O96         O  0.27971795  0.30937061  0.40815420    -0.81400
O97         O  0.37976242  0.30944189  0.37871326    -0.84200
C98         C  0.31501655  0.37079728  0.33085641     0.96600
C99         C  0.28045152  0.43727317  0.37858095     1.04000
O100        O  0.32605996  0.35111992  0.38354521    -1.13100
O101        O  0.36616062  0.36747758  0.41929889    -0.75600
O102        O  0.34674583  0.43138357  0.40537865    -0.79100
O103        O  0.29419968  0.35653672  0.34221294    -0.79800
C104        C  0.35909292  0.41002199  0.42113993     0.95500
O105        O  0.38176448  0.38492791  0.37162134    -0.77700
O106        O  0.31942478  0.30936026  0.42689637    -0.82900
C107        C  0.31413620  0.23859842  0.37499132     0.98100
C108        C  0.29361251  0.30370820  0.42615846     1.04000
O109        O  0.29965592  0.26909229  0.36528660    -0.78500
C110        C  0.39265644  0.34488624  0.37158213     1.02300
Fe111      Fe  0.34559073  0.58392639  0.61856903     1.65800
Fe112      Fe  0.34600874  0.67848442  0.58518751     1.73200
Fe113      Fe  0.29031280  0.65459982  0.61756182     1.54400
O114        O  0.27508524  0.58958359  0.60941157    -0.82300
O115        O  0.32859368  0.73991951  0.59728546    -0.80600
O116        O  0.30971510  0.54468260  0.62022642    -0.84800
O117        O  0.34064253  0.60586130  0.65126775    -0.79600
O118        O  0.27821581  0.67913386  0.58602500    -0.81400
O119        O  0.37931700  0.68786960  0.60599853    -0.84200
C120        C  0.31932220  0.62080060  0.66126634     0.96600
C121        C  0.28478218  0.55000210  0.61442461     1.04000
O122        O  0.32725923  0.63909079  0.60718384    -1.13100
O123        O  0.36504864  0.62309205  0.56890321    -0.75600
O124        O  0.35137347  0.55866584  0.58634842    -0.79100
O125        O  0.29799200  0.63387207  0.65064726    -0.79800
C126        C  0.36125979  0.57931042  0.56922236     0.95500
O127        O  0.38405735  0.61558430  0.61883639    -0.77700
O128        O  0.31424435  0.67139327  0.56300388    -0.82900
C129        C  0.31289131  0.75101944  0.61360633     0.98100
C130        C  0.28922144  0.68108742  0.56653831     1.04000
O131        O  0.30216131  0.72071340  0.62646355    -0.78500
C132        C  0.39327146  0.65656542  0.61571313     1.02300
Fe133      Fe  0.64602093  0.41342022  0.37110057     1.65800
Fe134      Fe  0.64163467  0.31543517  0.40290507     1.73200
Fe135      Fe  0.70095784  0.34009970  0.37388099     1.54400
O136        O  0.69318365  0.35373914  0.33998249    -0.82300
O137        O  0.67280008  0.31311077  0.42554601    -0.80600
O138        O  0.65416588  0.39468285  0.33828467    -0.84800
O139        O  0.68158653  0.45259360  0.37189619    -0.79600
O140        O  0.69152910  0.27160591  0.36769287    -0.81400
O141        O  0.62615590  0.37107559  0.42135497    -0.84200
C142        C  0.70694931  0.44625232  0.37540851     0.96600
C143        C  0.67411007  0.37358555  0.32888403     1.04000
O144        O  0.66296233  0.35607228  0.38251173    -1.13100
O145        O  0.60790085  0.31341841  0.38231328    -0.75600
O146        O  0.60706063  0.38452579  0.36782741    -0.79100
O147        O  0.71676501  0.40615474  0.37871474    -0.79800
C148        C  0.59579027  0.34545023  0.37167910     0.95500
O149        O  0.63770135  0.43632420  0.40343127    -0.77700
O150        O  0.65494347  0.25354165  0.38853463    -0.82900
C151        C  0.69875808  0.31565800  0.42495584     0.98100
C152        C  0.67465759  0.24218168  0.37561381     1.04000
O153        O  0.71218901  0.32454250  0.40696806    -0.78500
C154        C  0.62905797  0.41504673  0.42085265     1.02300
Fe155      Fe  0.64601858  0.59098782  0.61732308     1.65800
Fe156      Fe  0.64110427  0.68882551  0.58661955     1.73200
Fe157      Fe  0.70122846  0.66192515  0.61282097     1.54400
O158        O  0.69466773  0.64485836  0.64683798    -0.82300
O159        O  0.67044067  0.68985415  0.56230449    -0.80600
O160        O  0.65236813  0.61403946  0.64963380    -0.84800
O161        O  0.68188980  0.55246228  0.61890862    -0.79600
O162        O  0.69279405  0.72952501  0.62103718    -0.81400
O163        O  0.62356042  0.63229546  0.56935018    -0.84200
C164        C  0.70649427  0.55745985  0.61227256     0.96600
C165        C  0.67394889  0.63123717  0.65849619     1.04000
O166        O  0.66299802  0.64767622  0.60559057    -1.13100
O167        O  0.60930324  0.69225004  0.60953434    -0.75600
O168        O  0.60650267  0.61775080  0.61837833    -0.79100
O169        O  0.71543101  0.59624046  0.60534828    -0.79800
C170        C  0.59595437  0.65793298  0.61724976     0.95500
O171        O  0.63989951  0.56743592  0.58496628    -0.77700
O172        O  0.65715329  0.75050379  0.60003768    -0.82900
C173        C  0.69644014  0.69012838  0.56217867     0.98100
C174        C  0.67718258  0.76040409  0.61295629     1.04000
O175        O  0.71074222  0.68141352  0.57966379    -0.78500
C176        C  0.62900356  0.58884941  0.56851204     1.02300
Fe177      Fe  0.85130527  0.92003596  0.11524565     1.65800
Fe178      Fe  0.85416067  0.81991630  0.08576269     1.73200
Fe179      Fe  0.79484600  0.85132023  0.11230760     1.54400
O180        O  0.80135805  0.87073939  0.14585902    -0.82300
O181        O  0.82485067  0.82037332  0.06155780    -0.80600
O182        O  0.84358413  0.90160140  0.14811598    -0.84800
O183        O  0.81614338  0.96087676  0.11496769    -0.79600
O184        O  0.80260205  0.78467356  0.12193546    -0.81400
O185        O  0.87365272  0.87357455  0.06782809    -0.84200
C186        C  0.79130187  0.95597974  0.10894685     0.96600
C187        C  0.82181759  0.88559802  0.15727146     1.04000
O188        O  0.83326103  0.86348442  0.10447153    -1.13100
O189        O  0.88565693  0.81526173  0.10861761    -0.75600
O190        O  0.88998938  0.88971598  0.11753881    -0.79100
O191        O  0.78150870  0.91669281  0.10371145    -0.79800
C192        C  0.89962535  0.84876566  0.11639487     0.95500
O193        O  0.85914064  0.94037547  0.08267515    -0.77700
O194        O  0.83643703  0.76017580  0.09973721    -0.82900
C195        C  0.79884380  0.82016377  0.06194618     0.98100
C196        C  0.81678985  0.75234007  0.11343934     1.04000
O197        O  0.78493174  0.82926970  0.07967611    -0.78500
C198        C  0.86986428  0.91739861  0.06662283     1.02300
Fe199      Fe  0.85086813  0.09524901  0.87158042     1.65800
Fe200      Fe  0.85352054  0.19027401  0.90481429     1.73200
Fe201      Fe  0.79612649  0.16696183  0.87445811     1.54400
O202        O  0.80290114  0.14807586  0.84091634    -0.82300
O203        O  0.82290001  0.18409156  0.92817431    -0.80600
O204        O  0.84469448  0.11661720  0.83895328    -0.84800
O205        O  0.81486353  0.05634657  0.87087480    -0.79600
O206        O  0.80741602  0.23348056  0.86590238    -0.81400
O207        O  0.87279224  0.13421410  0.92054734    -0.84200
C208        C  0.78996598  0.06213248  0.87674578     0.96600
C209        C  0.82333990  0.13293511  0.82961015     1.04000
O210        O  0.83343094  0.15098519  0.88350964    -1.13100
O211        O  0.88605651  0.19864997  0.88289003    -0.75600
O212        O  0.88960942  0.12597166  0.87031020    -0.79100
O213        O  0.78064127  0.10180324  0.88203649    -0.79800
C214        C  0.89956993  0.16647593  0.87332966     0.95500
O215        O  0.85753755  0.07026114  0.90362585    -0.77700
O216        O  0.83605680  0.25263032  0.89344887    -0.82900
C217        C  0.79743418  0.19150120  0.92583053     0.98100
C218        C  0.81919684  0.26381066  0.87801302     1.04000
O219        O  0.78536285  0.18909729  0.90682184    -0.78500
C220        C  0.86851928  0.09050640  0.92034344     1.02300
Fe221      Fe  0.15215973  0.90054390  0.12092473     1.65800
Fe222      Fe  0.14911715  0.80534694  0.08818327     1.73200
Fe223      Fe  0.20640397  0.82783468  0.11885033     1.54400
O224        O  0.22231800  0.89254526  0.11053320    -0.82300
O225        O  0.16591151  0.74335607  0.10013669    -0.80600
O226        O  0.18838038  0.93837936  0.12188910    -0.84800
O227        O  0.15763166  0.87984519  0.15364918    -0.79600
O228        O  0.21729209  0.80375976  0.08676858    -0.81400
O229        O  0.11620219  0.79787657  0.10971719    -0.84200
C230        C  0.17897869  0.86405950  0.16321671     0.96600
C231        C  0.21310241  0.93243278  0.11563716     1.04000
O232        O  0.16925615  0.84425168  0.10954008    -1.13100
O233        O  0.13054787  0.86129271  0.07198202    -0.75600
O234        O  0.14686753  0.92468586  0.08863174    -0.79100
O235        O  0.19951001  0.84839116  0.15218338    -0.79800
C236        C  0.13634230  0.90444065  0.07173871     0.95500
O237        O  0.11307021  0.87092503  0.12181945    -0.77700
O238        O  0.18006836  0.81087035  0.06519171    -0.82900
C239        C  0.18225599  0.73195596  0.11588066     0.98100
C240        C  0.20533364  0.80217149  0.06769673     1.04000
O241        O  0.19432681  0.76200134  0.12797832    -0.78500
C242        C  0.10280347  0.83059927  0.11890474     1.02300
Fe243      Fe  0.15150497  0.08018760  0.87485911     1.65800
Fe244      Fe  0.15049364  0.17755596  0.90643672     1.73200
Fe245      Fe  0.20608660  0.15370069  0.87382140     1.54400
O246        O  0.22230670  0.08927087  0.88135070    -0.82300
O247        O  0.16620664  0.23938115  0.89303795    -0.80600
O248        O  0.18759472  0.04229363  0.87280241    -0.84800
O249        O  0.15537057  0.09957278  0.84164047    -0.79600
O250        O  0.21921025  0.17747055  0.90517630    -0.81400
O251        O  0.11655790  0.18318869  0.88593918    -0.84200
C252        C  0.17578094  0.11684103  0.83109678     0.96600
C253        C  0.21281848  0.04906912  0.87720519     1.04000
O254        O  0.16946693  0.13729719  0.88494167    -1.13100
O255        O  0.13311611  0.12220111  0.92420192    -0.75600
O256        O  0.14715483  0.05719283  0.90756722    -0.79100
O257        O  0.19680772  0.13326837  0.84110759    -0.79800
C258        C  0.13757088  0.07862356  0.92454296     0.95500
O259        O  0.11244425  0.10944143  0.87518406    -0.77700
O260        O  0.18280639  0.17429377  0.92821770    -0.82900
C261        C  0.18226963  0.25019570  0.87689678     0.98100
C262        C  0.20823224  0.18058227  0.92462653     1.04000
O263        O  0.19422889  0.21964469  0.86506077    -0.78500
C264        C  0.10261027  0.15010318  0.87756328     1.02300
Fe265      Fe  0.34861884  0.40196441  0.11903393     1.65800
Fe266      Fe  0.35275184  0.30660158  0.08632028     1.73200
Fe267      Fe  0.29376073  0.32981395  0.11503517     1.54400
O268        O  0.30005713  0.34706808  0.14893548    -0.82300
O269        O  0.32318082  0.31107132  0.06252306    -0.80600
O270        O  0.34165149  0.38018621  0.15149728    -0.84800
O271        O  0.31277118  0.44022694  0.11999304    -0.79600
O272        O  0.30389810  0.26265627  0.12302778    -0.81400
O273        O  0.37167198  0.36302173  0.07058740    -0.84200
C274        C  0.28802544  0.43467522  0.11392326     0.96600
C275        C  0.32004927  0.36320061  0.16049287     1.04000
O276        O  0.33159575  0.34575852  0.10698961    -1.13100
O277        O  0.38455194  0.29968510  0.10860451    -0.75600
O278        O  0.38765642  0.37292821  0.12029408    -0.79100
O279        O  0.27875393  0.39532549  0.10801405    -0.79800
C280        C  0.39793659  0.33275727  0.11747958     0.95500
O281        O  0.35523623  0.42675151  0.08690009    -0.77700
O282        O  0.33581865  0.24408849  0.09773685    -0.82900
C283        C  0.29733048  0.30691225  0.06355755     0.98100
C284        C  0.31770640  0.23270773  0.11223535     1.04000
O285        O  0.28387148  0.31011482  0.08200552    -0.78500
C286        C  0.36601760  0.40617592  0.07015365     1.02300
Fe287      Fe  0.34817267  0.58288157  0.87378942     1.65800
Fe288      Fe  0.35170547  0.67955333  0.90554567     1.73200
Fe289      Fe  0.29331564  0.65487522  0.87628477     1.54400
O290        O  0.30114072  0.63748409  0.84263096    -0.82300
O291        O  0.32113595  0.67688477  0.92881902    -0.80600
O292        O  0.34252452  0.60372551  0.84104291    -0.84800
O293        O  0.31227433  0.54409152  0.87264490    -0.79600
O294        O  0.30357270  0.72216163  0.86825240    -0.81400
O295        O  0.36962350  0.62356997  0.92240812    -0.84200
C296        C  0.28731773  0.54969702  0.87821090     0.96600
C297        C  0.32159091  0.62139613  0.83155702     1.04000
O298        O  0.33090274  0.63946663  0.88505587    -1.13100
O299        O  0.38426747  0.68545198  0.88358602    -0.75600
O300        O  0.38753404  0.61171025  0.87303833    -0.79100
O301        O  0.27783927  0.58935184  0.88319429    -0.79800
C302        C  0.39786422  0.65214217  0.87524074     0.95500
O303        O  0.35343315  0.55948561  0.90615138    -0.77700
O304        O  0.33584786  0.74146101  0.89298433    -0.82900
C305        C  0.29522220  0.67952780  0.92755980     0.98100
C306        C  0.31791741  0.75235487  0.87841830     1.04000
O307        O  0.28218472  0.67466208  0.90906984    -0.78500
C308        C  0.36388225  0.58033467  0.92291536     1.02300
Fe309      Fe  0.65051249  0.41942798  0.11698580     1.65800
Fe310      Fe  0.64826545  0.32265796  0.08547130     1.73200
Fe311      Fe  0.70635782  0.35044623  0.11385838     1.54400
O312        O  0.71987967  0.41614192  0.10547664    -0.82300
O313        O  0.66536481  0.26163296  0.09819935    -0.80600
O314        O  0.68624079  0.45854163  0.11991730    -0.84800
O315        O  0.65560279  0.39588266  0.14926705    -0.79600
O316        O  0.71743104  0.32924930  0.08133189    -0.81400
O317        O  0.61606361  0.31620452  0.10780109    -0.84200
C318        C  0.67732483  0.38100818  0.15867950     0.96600
C319        C  0.71073382  0.45423046  0.11292743     1.04000
O320        O  0.66855443  0.36380796  0.10545686    -1.13100
O321        O  0.62981291  0.37827270  0.06882313    -0.75600
O322        O  0.64514673  0.44385094  0.08463733    -0.79100
O323        O  0.69876256  0.36926235  0.14751574    -0.79800
C324        C  0.63450829  0.42192428  0.06818302     0.95500
O325        O  0.61142732  0.39054592  0.11663993    -0.77700
O326        O  0.67840349  0.32590373  0.06180331    -0.82900
C327        C  0.68381690  0.25190985  0.11257490     0.98100
C328        C  0.70432143  0.32336307  0.06297123     1.04000
O329        O  0.69740733  0.28312012  0.12274660    -0.78500
C330        C  0.60174970  0.34963870  0.11517035     1.02300
Fe331      Fe  0.65070804  0.59533712  0.87215831     1.65800
Fe332      Fe  0.64918238  0.69372644  0.90363271     1.73200
Fe333      Fe  0.70626225  0.66767154  0.87270018     1.54400
O334        O  0.72154827  0.60218275  0.87984593    -0.82300
O335        O  0.66502768  0.75492431  0.89006397    -0.80600
O336        O  0.68624170  0.55566943  0.87243035    -0.84800
O337        O  0.65734243  0.61320729  0.83891926    -0.79600
O338        O  0.71851799  0.68904002  0.90467844    -0.81400
O339        O  0.61534939  0.69875352  0.88303435    -0.84200
C340        C  0.67770944  0.63195686  0.82889735     0.96600
C341        C  0.71153072  0.56192183  0.87676607     1.04000
O342        O  0.66878354  0.65238368  0.88272895    -1.13100
O343        O  0.63162366  0.63955341  0.92157452    -0.75600
O344        O  0.64311344  0.57313607  0.90477558    -0.79100
O345        O  0.69796453  0.64963277  0.83944984    -0.79800
C346        C  0.63430826  0.59567716  0.92171590     0.95500
O347        O  0.61225840  0.62620425  0.87019852    -0.77700
O348        O  0.68072753  0.69163140  0.92611053    -0.82900
C349        C  0.68268973  0.76541815  0.87507546     0.98100
C350        C  0.70652074  0.69458268  0.92359466     1.04000
O351        O  0.69614354  0.73481639  0.86440417    -0.78500
C352        C  0.60200348  0.66623417  0.87357009     1.02300
C353        C  0.63210679  0.56889365  0.98387117    -0.11400
C354        C  0.62195995  0.52303733  0.98443223     0.05700
C355        C  0.61412046  0.50218001  0.96388729    -0.10200
C356        C  0.61770182  0.52567547  0.94337482    -0.11800
C357        C  0.62833619  0.57103357  0.94303573    -0.01600
C358        C  0.63492144  0.59267647  0.96351332    -0.10700
C359        C  0.62171196  0.49632457  0.00608126     0.05700
H360        H  0.60558052  0.46743206  0.96354963     0.07600
H361        H  0.61224184  0.50840357  0.92779415     0.11100
H362        H  0.64351871  0.62746402  0.96371036     0.11400
H363        H  0.63905805  0.58605997  0.99903941     0.07700
C364        C  0.62668383  0.44815586  0.00614494    -0.11400
C365        C  0.62955917  0.42390380  0.02638480    -0.10700
C366        C  0.62812594  0.44723238  0.04713695    -0.01600
C367        C  0.62235504  0.49496800  0.04727658    -0.11800
C368        C  0.61875330  0.51909355  0.02700977    -0.10200
H369        H  0.62965545  0.42924926  0.99057729     0.07700
H370        H  0.63426400  0.38717516  0.02574327     0.11400
H371        H  0.62085257  0.51371501  0.06305447     0.11100
H372        H  0.61413262  0.55579130  0.02781725     0.07700
C373        C  0.46740170  0.71013731  0.86656458    -0.11400
C374        C  0.48451342  0.67148783  0.86287266     0.05700
C375        C  0.47228588  0.62718545  0.86142426    -0.10200
C376        C  0.44401526  0.62141812  0.86431477    -0.11800
C377        C  0.42712175  0.65967138  0.86906561    -0.01600
C378        C  0.43904832  0.70426969  0.86973314    -0.10700
C379        C  0.51507936  0.67620779  0.86237743     0.05700
H380        H  0.48467187  0.59637023  0.85911138     0.07600
H381        H  0.43560137  0.58654641  0.86381778     0.11100
H382        H  0.42658147  0.73454165  0.87324104     0.11400
H383        H  0.47595076  0.74487059  0.86742014     0.07700
C384        C  0.53119351  0.64532015  0.84958579    -0.11400
C385        C  0.55968188  0.64379978  0.85229097    -0.10700
C386        C  0.57287039  0.67383126  0.86747594    -0.01600
C387        C  0.55714908  0.70742970  0.87882010    -0.11800
C388        C  0.52855114  0.70839775  0.87643224    -0.10200
H389        H  0.52171150  0.62103391  0.83803175     0.07700
H390        H  0.57129686  0.61795221  0.84306072     0.11400
H391        H  0.56671603  0.73098567  0.89069201     0.11100
H392        H  0.51695473  0.73252042  0.88669381     0.07700
C393        C  0.47160067  0.29429351  0.11252043    -0.11400
C394        C  0.48484234  0.32472589  0.12756257     0.05700
C395        C  0.46864200  0.35346530  0.14141155    -0.10200
C396        C  0.44010118  0.35431720  0.13904484    -0.11800
C397        C  0.42711566  0.32571681  0.12313831    -0.01600
C398        C  0.44302378  0.29451012  0.11048442    -0.10700
C399        C  0.51528889  0.32966393  0.12716018     0.05700
H400        H  0.47807833  0.37649261  0.15357982     0.07600
H401        H  0.42825224  0.37844172  0.14913686     0.11100
H402        H  0.43355529  0.27243748  0.09790462     0.11400
H403        H  0.48333443  0.27217323  0.10134369     0.07700
C404        C  0.53233072  0.29132065  0.12267265    -0.11400
C405        C  0.56062942  0.29735507  0.11957955    -0.10700
C406        C  0.57252050  0.34181600  0.12108758    -0.01600
C407        C  0.55567569  0.37975923  0.12659791    -0.11800
C408        C  0.52743729  0.37381285  0.12947488    -0.10200
H409        H  0.52374603  0.25671176  0.12113499     0.07700
H410        H  0.57305740  0.26738553  0.11544737     0.11400
H411        H  0.56411138  0.41454588  0.12781638     0.11100
H412        H  0.51501249  0.40432640  0.13248578     0.07700
C413        C  0.37728625  0.43249057  0.00829214    -0.11400
C414        C  0.37358007  0.48090312  0.00750970     0.05700
C415        C  0.36953719  0.50505213  0.02785706    -0.10200
C416        C  0.36820877  0.48112503  0.04837781    -0.11800
C417        C  0.37107207  0.43252487  0.04903550    -0.01600
C418        C  0.37609839  0.40863774  0.02877601    -0.10700
C419        C  0.37265271  0.50563554  0.98547921     0.05700
H420        H  0.36632685  0.54227766  0.02785202     0.07600
H421        H  0.36418941  0.50055175  0.06364726     0.11100
H422        H  0.37818259  0.37116381  0.02860605     0.11400
H423        H  0.38081842  0.41288552  0.99300147     0.07700
C424        C  0.38425453  0.55018288  0.98290336    -0.11400
C425        C  0.38220641  0.57398902  0.96239860    -0.10700
C426        C  0.36860043  0.55371472  0.94396942    -0.01600
C427        C  0.35745270  0.50883904  0.94645569    -0.11800
C428        C  0.35937396  0.48521233  0.96694013    -0.10200
H429        H  0.39487681  0.56669679  0.99676175     0.07700
H430        H  0.39095692  0.60855633  0.96108787     0.11400
H431        H  0.34646661  0.49240608  0.93275811     0.11100
H432        H  0.34971517  0.45137028  0.96843179     0.07700
C433        C  0.30365302  0.87901266  0.89031564    -0.11400
C434        C  0.28567291  0.88985029  0.87260391     0.05700
C435        C  0.28285995  0.85805258  0.85477874    -0.10200
C436        C  0.29547943  0.81459656  0.85570546    -0.11800
C437        C  0.31138717  0.80197885  0.87442157    -0.01600
C438        C  0.31644528  0.83545288  0.89119603    -0.10700
C439        C  0.26755060  0.93135380  0.87380513     0.05700
H440        H  0.26973752  0.86590726  0.84059680     0.07600
H441        H  0.29143394  0.78983394  0.84237518     0.11100
H442        H  0.32850637  0.82674015  0.90588857     0.11400
H443        H  0.30627208  0.90278619  0.90427854     0.07700
C444        C  0.23965925  0.92700174  0.86810828    -0.11400
C445        C  0.22200094  0.96496047  0.86961505    -0.10700
C446        C  0.23169649  0.00855038  0.87681298    -0.01600
C447        C  0.25958816  0.01300015  0.88271360    -0.11800
C448        C  0.27730721  0.97469605  0.88133885    -0.10200
H449        H  0.23130874  0.89387414  0.86276376     0.07700
H450        H  0.20069875  0.96010006  0.86493967    -0.11000
H451        H  0.26774930  0.04608759  0.88829548     0.11100
H452        H  0.29868562  0.97909612  0.88588138     0.07700
C453        C  0.26253748  0.42509964  0.87304951    -0.11400
C454        C  0.23388586  0.42960278  0.87497816     0.05700
C455        C  0.22284460  0.47384434  0.87925455    -0.10200
C456        C  0.24012790  0.51292477  0.88080762    -0.11800
C457        C  0.26879268  0.50842236  0.87826029    -0.01600
C458        C  0.27972635  0.46386847  0.87466212    -0.10700
C459        C  0.21611695  0.38763755  0.87272575     0.05700
H460        H  0.20084849  0.47833326  0.88088298     0.07600
H461        H  0.23100752  0.54673684  0.88357024     0.11100
H462        H  0.30166435  0.45887840  0.87285573     0.11400
H463        H  0.27174562  0.39132190  0.87034514     0.07700
C464        C  0.22197287  0.35449946  0.85602423    -0.11400
C465        C  0.20892151  0.31121569  0.85612745    -0.10700
C466        C  0.18974940  0.29975683  0.87304453    -0.01600
C467        C  0.18201533  0.33446148  0.88853351    -0.11800
C468        C  0.19504407  0.37808347  0.88833321    -0.10200
H469        H  0.23762714  0.36131407  0.84342664     0.07700
H470        H  0.21523441  0.28567341  0.84376794     0.11400
H471        H  0.16729603  0.32691300  0.90176470     0.11100
H472        H  0.18997446  0.40306627  0.90132586     0.07700
C473        C  0.23202924  0.19571474  0.98423409    -0.11400
C474        C  0.24892824  0.23523078  0.98227500     0.05700
C475        C  0.25474648  0.25309569  0.96070590    -0.10200
C476        C  0.24303322  0.23292866  0.94161552    -0.11800
C477        C  0.22499683  0.19511793  0.94383672    -0.01600
C478        C  0.21991554  0.17617777  0.96520328    -0.10700
C479        C  0.26022915  0.25780842  0.00268860     0.05700
H480        H  0.26746236  0.28375482  0.95862922     0.07600
H481        H  0.24672220  0.24860805  0.92528575     0.11100
H482        H  0.20600279  0.14697737  0.96720268     0.11400
H483        H  0.22779657  0.18032118  0.00052354     0.07700
C484        C  0.24456119  0.26067611  0.02262805    -0.11400
C485        C  0.25597646  0.27903357  0.04230151    -0.10700
C486        C  0.28322532  0.29503911  0.04232720    -0.01600
C487        C  0.29832578  0.29441669  0.02204793    -0.11800
C488        C  0.28703352  0.27579973  0.00252345    -0.10200
H489        H  0.22356921  0.24809914  0.02311877     0.07700
H490        H  0.24385009  0.27907484  0.05762020     0.11400
H491        H  0.31939966  0.30665646  0.02140512     0.11100
H492        H  0.29971651  0.27389755  0.98754403     0.07700
C493        C  0.22404208  0.78204860  0.00692007    -0.11400
C494        C  0.24281733  0.74531112  0.00871593     0.05700
C495        C  0.25056996  0.72980247  0.03024833    -0.10200
C496        C  0.23963580  0.75040142  0.04956228    -0.11800
C497        C  0.22045734  0.78638265  0.04768615    -0.01600
C498        C  0.21282023  0.80217776  0.02623113    -0.10700
C499        C  0.25518538  0.72452282  0.98825457     0.05700
H500        H  0.26468018  0.70108665  0.03216766     0.07600
H501        H  0.24518917  0.73676213  0.06592807     0.11100
H502        H  0.19785250  0.82968565  0.02442132     0.11400
H503        H  0.21810164  0.79535663  0.99059361     0.07700
C504        C  0.23963483  0.71715090  0.96860590    -0.11400
C505        C  0.25219661  0.70058627  0.94892646    -0.10700
C506        C  0.28047427  0.69108399  0.94864571    -0.01600
C507        C  0.29562493  0.69683757  0.96861478    -0.11800
C508        C  0.28319209  0.71353660  0.98807322    -0.10200
H509        H  0.21786423  0.72470668  0.96839030     0.07700
H510        H  0.23998327  0.69648097  0.93384029     0.11400
H511        H  0.31747414  0.68995287  0.96910863     0.11100
H512        H  0.29583192  0.71943550  0.00278025     0.07700
C513        C  0.11593587  0.93579342  0.01192213    -0.11400
C514        C  0.12825303  0.97977711  0.00932797     0.05700
C515        C  0.14181084  0.99966827  0.02786463    -0.10200
C516        C  0.14344674  0.97594264  0.04834338    -0.11800
C517        C  0.13168576  0.93152541  0.05082142    -0.01600
C518        C  0.11765840  0.91191091  0.03243065    -0.10700
C519        C  0.12795770  0.00436042  0.98724984     0.05700
H520        H  0.15197481  0.03308523  0.02634386     0.07600
H521        H  0.15475756  0.99182637  0.06201284     0.11100
H522        H  0.10840217  0.87772118  0.03375247     0.11400
H523        H  0.10509285  0.91973915  0.99805013     0.07700
C524        C  0.12471819  0.05285092  0.98635254    -0.11400
C525        C  0.12677117  0.07661653  0.96587943    -0.10700
C526        C  0.13222614  0.05255522  0.94573934    -0.01600
C527        C  0.13456512  0.00384787  0.94650180    -0.11800
C528        C  0.13236420  0.98002047  0.96701263    -0.10200
H529        H  0.12090550  0.07257182  0.00157034     0.07700
H530        H  0.12489395  0.11412208  0.96596875     0.11400
H531        H  0.13878550  0.98421711  0.93132929     0.11100
H532        H  0.13518667  0.94269206  0.96712824     0.07700
C533        C  0.22434384  0.51076871  0.10953559    -0.11400
C534        C  0.23417709  0.55334080  0.11799201     0.05700
C535        C  0.26186578  0.55664590  0.12440622    -0.10200
C536        C  0.27926089  0.51839299  0.12266340    -0.11800
C537        C  0.26948204  0.47557513  0.11448890    -0.01600
C538        C  0.24179496  0.47218571  0.10789569    -0.10700
C539        C  0.21628789  0.59506981  0.11943876     0.05700
H540        H  0.27026814  0.58919009  0.13050357     0.07600
H541        H  0.30041807  0.52242186  0.12790102     0.11100
H542        H  0.23356370  0.43967722  0.10161123     0.11400
H543        H  0.20309867  0.50717228  0.10447235     0.07700
C544        C  0.19888738  0.60713655  0.10154732    -0.11400
C545        C  0.18573795  0.65037413  0.10127586    -0.10700
C546        C  0.18979232  0.68241371  0.11887785    -0.01600
C547        C  0.20544720  0.66872482  0.13757037    -0.11800
C548        C  0.21847696  0.62554137  0.13786435    -0.10200
H549        H  0.19685203  0.58448425  0.08707479     0.07700
H550        H  0.17400736  0.65993633  0.08654070     0.11400
H551        H  0.20885935  0.69240250  0.15147540     0.11100
H552        H  0.23123424  0.61676033  0.15213604     0.07700
C553        C  0.27652043  0.00966893  0.10879648    -0.11400
C554        C  0.26626681  0.05304793  0.11572636     0.05700
C555        C  0.23838817  0.05648066  0.12166746    -0.10200
C556        C  0.22128852  0.01752368  0.12122839    -0.11800
C557        C  0.23151806  0.97378838  0.11484794    -0.01600
C558        C  0.25933650  0.97032315  0.10846574    -0.10700
C559        C  0.28402307  0.09522684  0.11668276     0.05700
H560        H  0.22967449  0.08957974  0.12655289     0.07600
H561        H  0.19998457  0.02177191  0.12611089     0.11100
H562        H  0.26787694  0.93720292  0.10343814     0.11400
H563        H  0.29791742  0.00601754  0.10407546     0.07700
C564        C  0.28124201  0.12655062  0.13470092    -0.11400
C565        C  0.29417928  0.16989944  0.13410532    -0.10700
C566        C  0.31034720  0.18305008  0.11549751    -0.01600
C567        C  0.31501392  0.15028601  0.09830081    -0.11800
C568        C  0.30194258  0.10672405  0.09888456    -0.10200
H569        H  0.26808926  0.11823944  0.14890797     0.07700
H570        H  0.29032001  0.19411206  0.14770941     0.11400
H571        H  0.32716881  0.15948416  0.08363623     0.11100
H572        H  0.30447334  0.08331362  0.08475906     0.07700
C573        C  0.97032276  0.14647065  0.84898897    -0.11400
C574        C  0.98636128  0.17730511  0.86187737     0.05700
C575        C  0.97283332  0.20986070  0.87567941    -0.10200
C576        C  0.94421271  0.20885452  0.87801047    -0.11800
C577        C  0.92856640  0.17488422  0.86683914    -0.01600
C578        C  0.94179497  0.14495690  0.85161511    -0.10700
C579        C  0.01678718  0.17166591  0.86308537     0.05700
H580        H  0.98439251  0.23404860  0.88593888     0.07600
H581        H  0.93458780  0.23244466  0.88983686     0.11100
H582        H  0.93020406  0.11894327  0.84245073     0.11400
H583        H  0.97991215  0.12196315  0.83760338     0.07700
C584        C  0.02830991  0.12689323  0.86254457    -0.11400
C585        C  0.05628907  0.12031006  0.86637534    -0.10700
C586        C  0.07357491  0.15823548  0.87113849    -0.01600
C587        C  0.06237931  0.20323577  0.87093447    -0.11800
C588        C  0.03432000  0.20989922  0.86684880    -0.10200
H589        H  0.01552065  0.09641692  0.86021168     0.07700
H590        H  0.06414175  0.08514975  0.86648208     0.11400
H591        H  0.07519414  0.23325412  0.87434847     0.11100
H592        H  0.02629030  0.24492988  0.86705098     0.07700
C593        C  0.78020155  0.22010855  0.98626820    -0.11400
C594        C  0.75766877  0.25000856  0.98363984     0.05700
C595        C  0.74708090  0.25720308  0.96188133    -0.10200
C596        C  0.75893327  0.23557771  0.94322944    -0.11800
C597        C  0.78199868  0.20708600  0.94582002    -0.01600
C598        C  0.79237503  0.19916265  0.96753939    -0.10700
C599        C  0.74475841  0.27268578  0.00349252     0.05700
H600        H  0.73008559  0.28060538  0.95910325     0.07600
H601        H  0.75086485  0.24307338  0.92663700     0.11100
H602        H  0.81021576  0.17738968  0.97000125     0.11400
H603        H  0.78848630  0.21283319  0.00279632     0.07700
C604        C  0.71623579  0.27932619  0.00403830    -0.11400
C605        C  0.70359904  0.29824551  0.02291686    -0.10700
C606        C  0.71899631  0.31020714  0.04208312    -0.01600
C607        C  0.74765610  0.30503693  0.04142941    -0.11800
C608        C  0.76045694  0.28670141  0.02223074    -0.10200
H609        H  0.70335788  0.26830907  0.99019230     0.07700
H610        H  0.68144777  0.30160489  0.02274305     0.11400
H611        H  0.76008292  0.31410905  0.05588686     0.11100
H612        H  0.78257386  0.28305507  0.02217473     0.07700
C613        C  0.80212460  0.38944076  0.89193230    -0.11400
C614        C  0.78303065  0.39991899  0.87492605     0.05700
C615        C  0.77973372  0.36810753  0.85715506    -0.10200
C616        C  0.79331256  0.32541273  0.85728378    -0.11800
C617        C  0.81072459  0.31319122  0.87516951    -0.01600
C618        C  0.81581460  0.34647424  0.89206267    -0.10700
C619        C  0.76497782  0.44177490  0.87632077     0.05700
H620        H  0.76582302  0.37555536  0.84343286     0.07600
H621        H  0.78902368  0.30096710  0.84387514     0.11100
H622        H  0.82900082  0.33820872  0.90615265     0.11400
H623        H  0.80524075  0.41318189  0.90583382     0.07700
C624        C  0.73709820  0.43807809  0.87039276    -0.11400
C625        C  0.71986164  0.47677072  0.87102922    -0.10700
C626        C  0.72989794  0.52056447  0.87760513    -0.01600
C627        C  0.75766498  0.52428513  0.88405301    -0.11800
C628        C  0.77497649  0.48524991  0.88352973    -0.10200
H629        H  0.72846347  0.40499297  0.86531763     0.07700
H630        H  0.69863619  0.47235237  0.86602059     0.11400
H631        H  0.76608833  0.55742591  0.88928153     0.11100
H632        H  0.79631772  0.48932419  0.88826173     0.07700
C633        C  0.69743311  0.89189647  0.88766332    -0.11400
C634        C  0.71724744  0.90211201  0.87109029     0.05700
C635        C  0.72144562  0.87008369  0.85355399    -0.10200
C636        C  0.70807084  0.82705751  0.85368314    -0.11800
C637        C  0.69016863  0.81494233  0.87138417    -0.01600
C638        C  0.68400682  0.84867571  0.88781857    -0.10700
C639        C  0.73549022  0.94349389  0.87313924     0.05700
H640        H  0.73610051  0.87748620  0.84025076     0.07600
H641        H  0.71310329  0.80215366  0.84063344     0.11100
H642        H  0.67041585  0.84045699  0.90174703     0.11400
H643        H  0.69372296  0.91595593  0.90136515     0.07700
C644        C  0.72512021  0.98746357  0.87892227    -0.11400
C645        C  0.74279009  0.02598007  0.88057534    -0.10700
C646        C  0.77120881  0.02117751  0.87665933    -0.01600
C647        C  0.78151793  0.97685961  0.87144573    -0.11800
C648        C  0.76391373  0.93863656  0.86969707    -0.10200
H649        H  0.70331508  0.99220307  0.88171626     0.07700
H650        H  0.73413000  0.05962475  0.88455973     0.11400
H651        H  0.80324695  0.97166404  0.86846399     0.11100
H652        H  0.77262947  0.90498833  0.86576525     0.07700
C653        C  0.02905750  0.78961325  0.11600292    -0.11400
C654        C  0.01594553  0.82147387  0.13042594     0.05700
C655        C  0.03228220  0.85144976  0.14350419    -0.10200
C656        C  0.06079117  0.85246360  0.14074786    -0.11800
C657        C  0.07367029  0.82299200  0.12512916    -0.01600
C658        C  0.05766215  0.79019103  0.11347926    -0.10700
C659        C  0.98555687  0.82725573  0.12983617     0.05700
H660        H  0.02291858  0.87555855  0.15521448     0.07600
H661        H  0.07267423  0.87764046  0.15020777     0.11100
H662        H  0.06702440  0.76713792  0.10126916     0.11400
H663        H  0.01714740  0.76624833  0.10554851     0.07700
C664        C  0.97418501  0.87211856  0.13022500    -0.11400
C665        C  0.94609077  0.87874101  0.12699929    -0.10700
C666        C  0.92856862  0.84071365  0.12308295    -0.01600
C667        C  0.93966715  0.79562436  0.12357317    -0.11800
C668        C  0.96785997  0.78895875  0.12695574    -0.10200
H669        H  0.98718797  0.90253101  0.13193196     0.07700
H670        H  0.93833346  0.91395056  0.12656280     0.11400
H671        H  0.92669760  0.76553133  0.12071343     0.11100
H672        H  0.97588871  0.75392293  0.12684133     0.07700
C673        C  0.87664717  0.01377621  0.02336096    -0.11400
C674        C  0.88344051  0.98909050  0.00368555     0.05700
C675        C  0.88835566  0.94104634  0.00537585    -0.10200
C676        C  0.88531642  0.91795733  0.02603942    -0.11800
C677        C  0.87717387  0.94239118  0.04547989    -0.01600
C678        C  0.87355182  0.99075804  0.04394874    -0.10700
C679        C  0.88311893  0.01300543  0.98139424     0.05700
H680        H  0.89398936  0.92109672  0.99059637     0.07600
H681        H  0.88835049  0.88072897  0.02658545     0.11100
H682        H  0.86728262  0.01078208  0.05853672     0.11400
H683        H  0.87238747  0.05062529  0.02267912     0.07700
C684        C  0.87095214  0.99148386  0.96261965    -0.11400
C685        C  0.86732827  0.01599331  0.94248180    -0.10700
C686        C  0.87572920  0.06268013  0.94059766    -0.01600
C687        C  0.88907547  0.08349001  0.95902468    -0.11800
C688        C  0.89275200  0.05893225  0.97914346    -0.10200
H689        H  0.86300013  0.95640885  0.96381163     0.07700
H690        H  0.85689428  0.99884526  0.92867685     0.11400
H691        H  0.89599648  0.11923040  0.95814619     0.11100
H692        H  0.90261815  0.07631129  0.99315492     0.07700
C693        C  0.78877897  0.77466005  0.00295705    -0.11400
C694        C  0.76022190  0.76883824  0.00190107     0.05700
C695        C  0.74399856  0.78318981  0.02031670    -0.10200
C696        C  0.75625200  0.80158030  0.03968184    -0.11800
C697        C  0.78492639  0.80620923  0.04087633    -0.01600
C698        C  0.80093734  0.79332125  0.02209371    -0.10700
C699        C  0.74763854  0.74706062  0.98177761     0.05700
H700        H  0.72183889  0.77994024  0.01981370     0.07600
H701        H  0.74337450  0.81119402  0.05382942     0.11100
H702        H  0.82313306  0.79618616  0.02235816     0.11400
H703        H  0.80190538  0.76344410  0.98925512     0.07700
C704        C  0.75796446  0.75655110  0.96007356    -0.11400
C705        C  0.74569005  0.73687390  0.94110199    -0.10700
C706        C  0.72263729  0.70792911  0.94347488    -0.01600
C707        C  0.71282068  0.69724229  0.96514180    -0.11800
C708        C  0.72531456  0.71635846  0.98411558    -0.10200
H709        H  0.77495717  0.78044231  0.95766993     0.07700
H710        H  0.75329678  0.74628810  0.92454536     0.11400
H711        H  0.69506310  0.67486625  0.96737179     0.11100
H712        H  0.71734604  0.70738762  0.00060386     0.07700
C713        C  0.72687880  0.03071975  0.10853519    -0.11400
C714        C  0.73773729  0.07503055  0.11310041     0.05700
C715        C  0.76638448  0.08013724  0.11495836    -0.10200
C716        C  0.78375153  0.04179363  0.11292315    -0.11800
C717        C  0.77295156  0.99720426  0.10895067    -0.01600
C718        C  0.74429633  0.99218104  0.10653854    -0.10700
C719        C  0.71967232  0.11635097  0.11565222     0.05700
H720        H  0.77543652  0.11402806  0.11793744     0.07600
H721        H  0.80566456  0.04705876  0.11474511     0.11100
H722        H  0.73524521  0.95827788  0.10361721     0.11400
H723        H  0.70490567  0.02572454  0.10702481     0.07700
C724        C  0.69842941  0.12525004  0.10027149    -0.11400
C725        C  0.68474773  0.16810197  0.10048658    -0.10700
C726        C  0.69203162  0.20274551  0.11613893    -0.01600
C727        C  0.71150059  0.19193768  0.13277162    -0.11800
C728        C  0.72516404  0.14934291  0.13249948    -0.10200
H729        H  0.69366331  0.10038681  0.08714446     0.07700
H730        H  0.66992084  0.17525981  0.08740295     0.11400
H731        H  0.71745571  0.21752413  0.14523473     0.11100
H732        H  0.74092299  0.14296818  0.14493569     0.07700
C733        C  0.74779748  0.55838656  0.13655299    -0.11400
C734        C  0.76454679  0.57247533  0.11836878     0.05700
C735        C  0.76391791  0.54587744  0.09841476    -0.10200
C736        C  0.74679596  0.50680417  0.09667036    -0.11800
C737        C  0.72936459  0.49446474  0.11454968    -0.01600
C738        C  0.73008445  0.52040030  0.13450315    -0.10700
C739        C  0.78099786  0.61635974  0.11974170     0.05700
H740        H  0.77602049  0.55586258  0.08387181     0.07600
H741        H  0.74653240  0.48707369  0.08113358     0.11100
H742        H  0.71719291  0.51077225  0.14867911     0.11400
H743        H  0.74820011  0.57674261  0.15245486     0.07700
C744        C  0.77126362  0.65392628  0.13260761    -0.11400
C745        C  0.78463638  0.69676613  0.13213957    -0.10700
C746        C  0.80779251  0.70399730  0.11831475    -0.01600
C747        C  0.81861962  0.66594457  0.10643445    -0.11800
C748        C  0.80546461  0.62248605  0.10726758    -0.10200
H749        H  0.75234332  0.65138801  0.14214775     0.07700
H750        H  0.77560076  0.72514458  0.14155309     0.11400
H751        H  0.83641212  0.67026660  0.09562756     0.11100
H752        H  0.81406570  0.59413711  0.09759737     0.07700
C753        C  0.65132181  0.63157944  0.71964368    -0.11400
C754        C  0.67624921  0.63831296  0.73110592     0.05700
C755        C  0.70039026  0.64500181  0.71835451    -0.10200
C756        C  0.69968676  0.64360962  0.69476331    -0.11800
C757        C  0.67485918  0.63515439  0.68341372    -0.01600
C758        C  0.65065955  0.62976928  0.69615792    -0.10700
C759        C  0.67697336  0.63682102  0.75620754     0.05700
H760        H  0.71999157  0.64997232  0.72659588     0.07600
H761        H  0.71867936  0.64803528  0.68544654     0.11100
H762        H  0.63108184  0.62402687  0.68797628     0.11400
H763        H  0.63221246  0.62759220  0.72883750     0.07700
C764        C  0.69459509  0.66611343  0.76852742    -0.11400
C765        C  0.69507097  0.66427313  0.79210651    -0.10700
C766        C  0.67777559  0.63339482  0.80391093    -0.01600
C767        C  0.66022031  0.60413328  0.79160234    -0.11800
C768        C  0.65995602  0.60561378  0.76808861    -0.10200
H769        H  0.70772051  0.69095900  0.75998235     0.07700
H770        H  0.70868893  0.68756314  0.80111100     0.11400
H771        H  0.64683040  0.57966078  0.80014364     0.11100
H772        H  0.64658202  0.58176150  0.75920253     0.07700
C773        C  0.66009211  0.40448994  0.26803438    -0.11400
C774        C  0.67687747  0.37305891  0.25626994     0.05700
C775        C  0.69304469  0.34172292  0.26862118    -0.10200
C776        C  0.69225701  0.34172674  0.29222271    -0.11800
C777        C  0.67519288  0.37292303  0.30392018    -0.01600
C778        C  0.65917187  0.40430625  0.29151650    -0.10700
C779        C  0.67719288  0.37316896  0.23122280     0.05700
H780        H  0.70597084  0.31677548  0.26003918     0.07600
H781        H  0.70477891  0.31699823  0.30130014     0.11100
H782        H  0.64608618  0.42922413  0.29996708     0.11400
H783        H  0.64781892  0.42972892  0.25906259     0.07700
C784        C  0.65266091  0.37970578  0.21925272    -0.11400
C785        C  0.65281668  0.38201015  0.19578640    -0.10700
C786        C  0.67749222  0.37755473  0.18360472    -0.01600
C787        C  0.70201285  0.37005784  0.19550345    -0.11800
C788        C  0.70186355  0.36795088  0.21908347    -0.10200
H789        H  0.63323777  0.38290110  0.22805092     0.07700
H790        H  0.63347984  0.38721540  0.18717917     0.11400
H791        H  0.72136450  0.36654954  0.18662658     0.11100
H792        H  0.72114462  0.36329490  0.22783459     0.07700
C793        C  0.61252192  0.56240541  0.50720090    -0.11400
C794        C  0.61892433  0.51485085  0.50560026     0.05700
C795        C  0.62667377  0.49123644  0.52532903    -0.10200
C796        C  0.62885959  0.51482190  0.54588661    -0.11800
C797        C  0.62334818  0.56271301  0.54733379    -0.01600
C798        C  0.61468566  0.58601536  0.52777797    -0.10700
C799        C  0.61892698  0.49045422  0.48335344     0.05700
H800        H  0.63211067  0.45481590  0.52475364     0.07600
H801        H  0.63568865  0.49569607  0.56053529     0.11100
H802        H  0.61030495  0.62286212  0.52819902     0.11400
H803        H  0.60608810  0.58159831  0.49245490     0.07700
C804        C  0.61065097  0.44368456  0.48160724    -0.11400
C805        C  0.61287734  0.41975878  0.46113024    -0.10700
C806        C  0.62336496  0.44198616  0.44178571    -0.01600
C807        C  0.63069387  0.48921307  0.44332291    -0.11800
C808        C  0.62855413  0.51308515  0.46382191    -0.10200
H809        H  0.60270994  0.42531254  0.49617266     0.07700
H810        H  0.60696555  0.38347217  0.46061214     0.11400
H811        H  0.63906651  0.50740563  0.42886112     0.11100
H812        H  0.63548528  0.54883021  0.46453920     0.07700
C813        C  0.34461046  0.62372486  0.72152264    -0.11400
C814        C  0.31990229  0.62541607  0.73384498     0.05700
C815        C  0.29492427  0.62657658  0.72200957    -0.10200
C816        C  0.29468390  0.62555896  0.69844080    -0.11800
C817        C  0.31939651  0.62293603  0.68619687    -0.01600
C818        C  0.34435638  0.62225195  0.69801003    -0.10700
C819        C  0.32026317  0.62488200  0.75891573     0.05700
H820        H  0.27552007  0.62726273  0.73096432     0.07600
H821        H  0.27511299  0.62595007  0.68981206     0.11100
H822        H  0.36377078  0.62089591  0.68906095     0.11400
H823        H  0.36423088  0.62376490  0.73006243     0.07700
C824        C  0.33933476  0.59720268  0.77046521    -0.11400
C825        C  0.33978258  0.59634788  0.79397340    -0.10700
C826        C  0.32102392  0.62285728  0.80658983    -0.01600
C827        C  0.30185274  0.65045652  0.79509633    -0.11800
C828        C  0.30153588  0.65156647  0.77151828    -0.10200
H829        H  0.35369854  0.57554222  0.76133003     0.07700
H830        H  0.35467298  0.57438612  0.80226648     0.11400
H831        H  0.28725672  0.67153492  0.80431518     0.11100
H832        H  0.28682654  0.67375095  0.76316080     0.07700
C833        C  0.52594679  0.71208566  0.62756540    -0.11400
C834        C  0.50938970  0.67231546  0.63046940     0.05700
C835        C  0.52212517  0.62856110  0.63122350    -0.10200
C836        C  0.55040809  0.62437959  0.62810028    -0.11800
C837        C  0.56677439  0.66378246  0.62391677    -0.01600
C838        C  0.55435833  0.70785664  0.62426019    -0.10700
C839        C  0.47885390  0.67518880  0.63025841     0.05700
H840        H  0.51008055  0.59706528  0.63298704     0.07600
H841        H  0.55921919  0.58987305  0.62788061     0.11100
H842        H  0.56644018  0.73893527  0.62127754     0.11400
H843        H  0.51684522  0.74635776  0.62722452     0.07700
C844        C  0.46289681  0.64354927  0.64281751    -0.11400
C845        C  0.43472532  0.63917620  0.63892895    -0.10700
C846        C  0.42178040  0.66694116  0.62269626    -0.01600
C847        C  0.43717445  0.70149101  0.61162738    -0.11800
C848        C  0.46547302  0.70541115  0.61526949    -0.10200
H849        H  0.47240760  0.62065005  0.65495705     0.07700
H850        H  0.42324687  0.61285181  0.64804113     0.11400
H851        H  0.42771781  0.72344729  0.59904671     0.11100
H852        H  0.47708362  0.72998432  0.60520276     0.07700
C853        C  0.29782839  0.33505054  0.22052818    -0.11400
C854        C  0.31533766  0.36410828  0.23310971     0.05700
C855        C  0.33383331  0.39319681  0.22149194    -0.10200
C856        C  0.33532404  0.39253267  0.19803258    -0.11800
C857        C  0.31809879  0.36321417  0.18543457    -0.01600
C858        C  0.29911930  0.33475982  0.19691666    -0.10700
C859        C  0.31486401  0.36403004  0.25821932     0.05700
H860        H  0.34712754  0.41692447  0.23054235     0.07600
H861        H  0.34985277  0.41547081  0.18974026     0.11100
H862        H  0.28557157  0.31175798  0.18767085     0.11400
H863        H  0.28351067  0.31192363  0.22892092     0.07700
C864        C  0.29007121  0.35994858  0.27036873    -0.11400
C865        C  0.28995729  0.36169682  0.29398678    -0.10700
C866        C  0.31461116  0.36791693  0.30590735    -0.01600
C867        C  0.33935708  0.37127930  0.29373812    -0.11800
C868        C  0.33950133  0.36906069  0.27027602    -0.10200
H869        H  0.27069185  0.35641650  0.26162277     0.07700
H870        H  0.27055850  0.35899718  0.30288347     0.11400
H871        H  0.35879254  0.37530798  0.30237415     0.11100
H872        H  0.35904906  0.37107804  0.26157106     0.07700
C873        C  0.52279434  0.30060161  0.37184638    -0.11400
C874        C  0.50961714  0.33203823  0.35736210     0.05700
C875        C  0.52580626  0.36452259  0.34547058    -0.10200
C876        C  0.55413081  0.36764566  0.34925305    -0.11800
C877        C  0.56691763  0.33786274  0.36473713    -0.01600
C878        C  0.55108491  0.30327209  0.37535786    -0.10700
C879        C  0.47903588  0.33419232  0.35689044     0.05700
H880        H  0.51645464  0.38860905  0.33380087     0.07600
H881        H  0.56586641  0.39429740  0.34059454     0.11100
H882        H  0.56026507  0.27989866  0.38746187     0.11400
H883        H  0.51108322  0.27559864  0.38158965     0.07700
C884        C  0.46296272  0.29379817  0.35970382    -0.11400
C885        C  0.43462814  0.29691264  0.36347702    -0.10700
C886        C  0.42169322  0.34046429  0.36426428    -0.01600
C887        C  0.43742109  0.38053018  0.35980266    -0.11800
C888        C  0.46572671  0.37746470  0.35627045    -0.10200
H889        H  0.47241479  0.25979784  0.35975145     0.07700
H890        H  0.42304337  0.26532635  0.36654987     0.11400
H891        H  0.42812725  0.41466543  0.36017818     0.11100
H892        H  0.47733815  0.40939935  0.35441794     0.07700
C893        C  0.37873112  0.43383575  0.48204012    -0.11400
C894        C  0.37080157  0.48048289  0.48465452     0.05700
C895        C  0.36042365  0.50428913  0.46583584    -0.10200
C896        C  0.35749956  0.48187233  0.44509270    -0.11800
C897        C  0.36486230  0.43497549  0.44255607    -0.01600
C898        C  0.37584640  0.41136494  0.46123139    -0.10700
C899        C  0.37198624  0.50398044  0.50701952     0.05700
H900        H  0.35364010  0.53995301  0.46730606     0.07600
H901        H  0.34879056  0.50108623  0.43116671     0.11100
H902        H  0.38163803  0.37516250  0.45993417     0.11400
H903        H  0.38701615  0.41459676  0.49613033     0.07700
C904        C  0.36408899  0.48043263  0.52680041    -0.11400
C905        C  0.36188444  0.50428418  0.54731318    -0.10700
C906        C  0.36757026  0.55220617  0.54851510    -0.01600
C907        C  0.37696260  0.57503787  0.52898536    -0.11800
C908        C  0.37914897  0.55124050  0.50854068    -0.10200
H909        H  0.35829889  0.44408919  0.52623362     0.07700
H910        H  0.35464753  0.48555763  0.56201701     0.11400
H911        H  0.38172938  0.61181081  0.52926533     0.11100
H912        H  0.38588340  0.57020878  0.49374730     0.07700
C913        C  0.15520480  0.09244192  0.77071651    -0.11400
C914        C  0.17388359  0.12027092  0.75854454     0.05700
C915        C  0.19314433  0.14703889  0.77054324    -0.10200
C916        C  0.19385994  0.14568112  0.79405654    -0.11800
C917        C  0.17512745  0.11796778  0.80617296    -0.01600
C918        C  0.15571114  0.09152136  0.79424026    -0.10700
C919        C  0.17340030  0.12109453  0.73347113     0.05700
H920        H  0.20749105  0.16954406  0.76179901     0.07600
H921        H  0.20892039  0.16682560  0.80275849     0.11100
H922        H  0.14109936  0.06960274  0.80306805     0.11400
H923        H  0.14041395  0.07070178  0.76207549     0.07700
C924        C  0.19795094  0.12487374  0.72100394    -0.11400
C925        C  0.19752133  0.12516232  0.69746956    -0.10700
C926        C  0.17255990  0.12105976  0.68582458    -0.01600
C927        C  0.14800879  0.11735705  0.69823088    -0.11800
C928        C  0.14840118  0.11768390  0.72175722    -0.10200
H929        H  0.21763407  0.12673247  0.72940748     0.07700
H930        H  0.21679990  0.12772260  0.68839538     0.11400
H931        H  0.12839992  0.11457219  0.68974580     0.11100
H932        H  0.12905368  0.11568263  0.73074798     0.07700
C933        C  0.26961850  0.97180861  0.60779569    -0.11400
C934        C  0.25957676  0.92910629  0.61599370     0.05700
C935        C  0.23199335  0.92625266  0.62292903    -0.10200
C936        C  0.21496444  0.96511009  0.62208191    -0.11800
C937        C  0.22499981  0.00810246  0.61428605    -0.01600
C938        C  0.25253596  0.01098534  0.60704670    -0.10700
C939        C  0.27727336  0.88705580  0.61702635     0.05700
H940        H  0.22341172  0.89364895  0.62883367     0.07600
H941        H  0.19388977  0.96140915  0.62771967     0.11100
H942        H  0.26093608  0.04355262  0.60093487     0.11400
H943        H  0.29078069  0.97508864  0.60232645     0.07700
C944        C  0.29473013  0.87524281  0.59901759    -0.11400
C945        C  0.30821743  0.83228278  0.59871039    -0.10700
C946        C  0.30449324  0.80025560  0.61640167    -0.01600
C947        C  0.28857350  0.81357459  0.63509770    -0.11800
C948        C  0.27518393  0.85644169  0.63541566    -0.10200
H949        H  0.29669675  0.89798954  0.58456605     0.07700
H950        H  0.32012946  0.82300958  0.58394701     0.11400
H951        H  0.28533941  0.78990912  0.64905252     0.11100
H952        H  0.26238502  0.86499636  0.64977538     0.07700
C953        C  0.25907161  0.42669365  0.62286767    -0.11400
C954        C  0.23150872  0.42958104  0.61605453     0.05700
C955        C  0.22174619  0.47222308  0.60776757    -0.10200
C956        C  0.23903339  0.51134048  0.60691197    -0.11800
C957        C  0.26649705  0.50848678  0.61414299    -0.01600
C958        C  0.27630231  0.46550703  0.62192418    -0.10700
C959        C  0.21356645  0.38760780  0.61729683     0.05700
H960        H  0.20063253  0.47554596  0.60235183     0.07600
H961        H  0.23082134  0.54388255  0.60077187     0.11100
H962        H  0.29731746  0.46182434  0.62754088     0.11400
H963        H  0.26747872  0.39411844  0.62878948     0.07700
C964        C  0.19583065  0.37590310  0.59952257    -0.11400
C965        C  0.18236177  0.33276060  0.59925416    -0.10700
C966        C  0.18645213  0.30044141  0.61671547    -0.01600
C967        C  0.20245798  0.31375991  0.63528701    -0.11800
C968        C  0.21576556  0.35684378  0.63559776    -0.10200
H969        H  0.19369894  0.39879260  0.58516902     0.07700
H970        H  0.17030070  0.32350927  0.58461986     0.11400
H971        H  0.20587122  0.28990809  0.64909328     0.11100
H972        H  0.22868298  0.36536700  0.64983649     0.07700
C973        C  0.23936364  0.26168755  0.46755257    -0.11400
C974        C  0.25561766  0.24888832  0.48613523     0.05700
C975        C  0.28407045  0.25659257  0.48506289    -0.10200
C976        C  0.29602488  0.27601673  0.46590704    -0.11800
C977        C  0.27994271  0.28769325  0.44708997    -0.01600
C978        C  0.25142804  0.28063569  0.44817034    -0.10700
C979        C  0.24305399  0.22756570  0.50654813     0.05700
H980        H  0.29732711  0.24654801  0.49881591     0.07600
H981        H  0.31811480  0.28062582  0.46567848     0.11100
H982        H  0.23848530  0.28926213  0.43398336     0.11400
H983        H  0.21728657  0.25718210  0.46796935     0.07700
C984        C  0.25350318  0.23736029  0.52813614    -0.11400
C985        C  0.24089974  0.21898981  0.54735958    -0.10700
C986        C  0.21732860  0.19113311  0.54542338    -0.01600
C987        C  0.20743279  0.17995657  0.52389226    -0.11800
C988        C  0.22028753  0.19765105  0.50466699    -0.10200
H989        H  0.27078652  0.26065579  0.53030017     0.07700
H990        H  0.24873980  0.22860934  0.56377387     0.11400
H991        H  0.18937439  0.15824841  0.52193118     0.11100
H992        H  0.21217144  0.18822930  0.48833314     0.07700
C993        C  0.15321533  0.86546133  0.27219867    -0.11400
C994        C  0.17859006  0.86195049  0.26091449     0.05700
C995        C  0.20266892  0.85788743  0.27381255    -0.10200
C996        C  0.20139080  0.85840251  0.29738141    -0.11800
C997        C  0.17605743  0.86351314  0.30853889    -0.01600
C998        C  0.15198579  0.86658385  0.29566624    -0.10700
C999        C  0.17969776  0.86342224  0.23584011     0.05700
H1000       H  0.22257934  0.85552176  0.26572940     0.07600
H1001       H  0.22031303  0.85601736  0.30685166     0.11100
H1002       H  0.13209242  0.86983343  0.30373986     0.11400
H1003       H  0.13416389  0.86728828  0.26289420     0.07700
C1004       C  0.19873545  0.83654845  0.22362717    -0.11400
C1005       C  0.19890575  0.83719427  0.20002775    -0.10700
C1006       C  0.17985179  0.86434816  0.18816083    -0.01600
C1007       C  0.16121243  0.89179149  0.20037436    -0.11800
C1008       C  0.16127409  0.89160877  0.22385974    -0.10200
H1009       H  0.21309265  0.81416160  0.23226320     0.07700
H1010       H  0.21353338  0.81568425  0.19108623     0.11400
H1011       H  0.14655847  0.91370107  0.19176908     0.11100
H1012       H  0.14687311  0.91382910  0.23262620     0.07700
C1013       C  0.21061307  0.78518727  0.49134185    -0.11400
C1014       C  0.23791405  0.76964187  0.49070614     0.05700
C1015       C  0.25316215  0.77522408  0.47068741    -0.10200
C1016       C  0.24076798  0.79272042  0.45128165    -0.11800
C1017       C  0.21290866  0.80510286  0.45155247    -0.01600
C1018       C  0.19828134  0.80284021  0.47201011    -0.10700
C1019       C  0.24988236  0.74526352  0.51038159     0.05700
H1020       H  0.27449924  0.76486059  0.46983776     0.07600
H1021       H  0.25264082  0.79439943  0.43583644     0.11100
H1022       H  0.17684019  0.81266867  0.47286563     0.11400
H1023       H  0.19825078  0.78145622  0.50643400     0.07700
C1024       C  0.24348909  0.75912012  0.53250853    -0.11400
C1025       C  0.25491786  0.73599788  0.55089633    -0.10700
C1026       C  0.27325102  0.69910206  0.54750096    -0.01600
C1027       C  0.27922591  0.68457604  0.52548659    -0.11800
C1028       C  0.26743039  0.70708822  0.50712358    -0.10200
H1029       H  0.23031195  0.78866217  0.53562512     0.07700
H1030       H  0.25056120  0.74855873  0.56774467     0.11400
H1031       H  0.29341674  0.65630162  0.52249091     0.11100
H1032       H  0.27217885  0.69465885  0.49034685     0.07700
C1033       C  0.12429740  0.00764421  0.46573444    -0.11400
C1034       C  0.11546984  0.98384218  0.48514345     0.05700
C1035       C  0.10777537  0.93693933  0.48332879    -0.10200
C1036       C  0.11022964  0.91360987  0.46280514    -0.11800
C1037       C  0.12054977  0.93667835  0.44364892    -0.01600
C1038       C  0.12683032  0.98429309  0.44519802    -0.10700
C1039       C  0.11641209  0.00690907  0.50745074     0.05700
H1040       H  0.10049941  0.91795693  0.49795290     0.07600
H1041       H  0.10504539  0.87702352  0.46220016     0.11100
H1042       H  0.13485366  0.00310991  0.43078702     0.11400
H1043       H  0.13057450  0.04371295  0.46666650     0.07700
C1044       C  0.12753527  0.98357289  0.52609679    -0.11400
C1045       C  0.13107111  0.00660739  0.54659999    -0.10700
C1046       C  0.12353359  0.05346539  0.54889762    -0.01600
C1047       C  0.11145534  0.07624243  0.53046425    -0.11800
C1048       C  0.10798348  0.05322080  0.50995918    -0.10200
H1049       H  0.13456735  0.94806257  0.52456956     0.07700
H1050       H  0.14056696  0.98811566  0.56041244     0.11400
H1051       H  0.10534437  0.11229726  0.53166111     0.11100
H1052       H  0.09908760  0.07187770  0.49592997     0.07700
C1053       C  0.22182547  0.63693255  0.36273467    -0.11400
C1054       C  0.21099760  0.59988137  0.37543499     0.05700
C1055       C  0.18719896  0.60799696  0.38847690    -0.10200
C1056       C  0.17540512  0.65255534  0.38946762    -0.11800
C1057       C  0.18703861  0.68975245  0.37729041    -0.01600
C1058       C  0.20990774  0.68078811  0.36343662    -0.10700
C1059       C  0.22581789  0.55438204  0.37577743     0.05700
H1060       H  0.17801126  0.58025651  0.39825558     0.07600
H1061       H  0.15787944  0.65823981  0.40041512     0.11100
H1062       H  0.21968518  0.70836920  0.35390963     0.11400
H1063       H  0.24046712  0.63294867  0.35293748     0.07700
C1064       C  0.24085874  0.53986083  0.35673472    -0.11400
C1065       C  0.25839726  0.50172688  0.35785783    -0.10700
C1066       C  0.26060568  0.47584464  0.37773131    -0.01600
C1067       C  0.24426553  0.48782220  0.39636007    -0.11800
C1068       C  0.22725454  0.52714417  0.39549705    -0.10200
H1069       H  0.23958675  0.55854226  0.34096501     0.07700
H1070       H  0.27035138  0.49238515  0.34310933     0.11400
H1071       H  0.24559058  0.46805562  0.41183147     0.11100
H1072       H  0.21618782  0.53720478  0.41056298     0.07700
C1073       C  0.27494583  0.13441001  0.35385236    -0.11400
C1074       C  0.27871028  0.10273021  0.37158548     0.05700
C1075       C  0.29863160  0.11283949  0.38799900    -0.10200
C1076       C  0.31254056  0.15560280  0.38782425    -0.11800
C1077       C  0.30670267  0.18911281  0.37127908    -0.01600
C1078       C  0.28873345  0.17708202  0.35371121    -0.10700
C1079       C  0.26021906  0.06159306  0.37390524     0.05700
H1080       H  0.30208362  0.08914674  0.40186336     0.07600
H1081       H  0.32613330  0.16382484  0.40167026     0.11100
H1082       H  0.28395469  0.20187993  0.34058220     0.11400
H1083       H  0.26035547  0.12707908  0.34058460     0.07700
C1084       C  0.23198337  0.06588479  0.36937610    -0.11400
C1085       C  0.21426063  0.02782578  0.37163384    -0.10700
C1086       C  0.22425459  0.98435726  0.37852976    -0.01600
C1087       C  0.25243799  0.98017590  0.38343669    -0.11800
C1088       C  0.27019808  0.01837810  0.38119827    -0.10200
H1089       H  0.22347049  0.09895253  0.36426805     0.07700
H1090       H  0.19270861  0.03244317  0.36778038     0.11400
H1091       H  0.26089264  0.94716247  0.38869694     0.11100
H1092       H  0.29182187  0.01389257  0.38479457     0.07700
C1093       C  0.79410386  0.12911488  0.72015493    -0.11400
C1094       C  0.81918847  0.13420243  0.73169200     0.05700
C1095       C  0.84351108  0.13851111  0.71893577    -0.10200
C1096       C  0.84287035  0.13667087  0.69543077    -0.11800
C1097       C  0.81785017  0.13155309  0.68400147    -0.01600
C1098       C  0.79342737  0.12828212  0.69657102    -0.10700
C1099       C  0.82015476  0.13434266  0.75684638     0.05700
H1100       H  0.86314313  0.14371430  0.72706924     0.07600
H1101       H  0.86198293  0.13995173  0.68614835     0.11100
H1102       H  0.77386389  0.12402170  0.68816733     0.11400
H1103       H  0.77499349  0.12488201  0.72930777     0.07700
C1104       C  0.79861673  0.15344107  0.76972467    -0.11400
C1105       C  0.79958771  0.15306065  0.79330018    -0.10700
C1106       C  0.82221531  0.13389288  0.80460829    -0.01600
C1107       C  0.84380269  0.11511217  0.79175778    -0.11800
C1108       C  0.84272051  0.11509780  0.76824949    -0.10200
H1109       H  0.78110390  0.16926404  0.76162787     0.07700
H1110       H  0.78263403  0.16796256  0.80265181     0.11400
H1111       H  0.86151870  0.09988314  0.79985485     0.11100
H1112       H  0.85945518  0.09917929  0.75905670     0.07700
C1113       C  0.96644538  0.20479840  0.61069590    -0.11400
C1114       C  0.97963303  0.17382223  0.62545845     0.05700
C1115       C  0.96330301  0.14341458  0.63844674    -0.10200
C1116       C  0.93486661  0.14146458  0.63545895    -0.11800
C1117       C  0.92196713  0.17059094  0.61978603    -0.01600
C1118       C  0.93789887  0.20343995  0.60803442    -0.10700
C1119       C  0.01020631  0.17006700  0.62567833     0.05700
H1120       H  0.97256394  0.11999814  0.65047405     0.07600
H1121       H  0.92304227  0.11617680  0.64495949     0.11100
H1122       H  0.92852259  0.22614981  0.59573415     0.11400
H1123       H  0.97823561  0.22835953  0.60021172     0.07700
C1124       C  0.02265786  0.12631685  0.62807818    -0.11400
C1125       C  0.05103853  0.12139239  0.62598591    -0.10700
C1126       C  0.06785563  0.15993814  0.62110269    -0.01600
C1127       C  0.05566994  0.20402627  0.61946570    -0.11800
C1128       C  0.02716894  0.20906815  0.62184064    -0.10200
H1129       H  0.01041381  0.09524354  0.63055045     0.07700
H1130       H  0.05963578  0.08682802  0.62724095     0.11400
H1131       H  0.06805383  0.23445983  0.61580248     0.11100
H1132       H  0.01840168  0.24343107  0.62027387     0.07700
C1133       C  0.74141285  0.26417687  0.52829756    -0.11400
C1134       C  0.75020004  0.25158604  0.50650243     0.05700
C1135       C  0.77001665  0.21648916  0.50420570    -0.10200
C1136       C  0.78144623  0.19569104  0.52317370    -0.11800
C1137       C  0.77298688  0.20887522  0.54487674    -0.01600
C1138       C  0.75253620  0.24271350  0.54729118    -0.10700
C1139       C  0.73811205  0.27358792  0.48619435     0.05700
H1140       H  0.77674167  0.20498210  0.48771886     0.07600
H1141       H  0.79733677  0.16976377  0.52090080     0.11100
H1142       H  0.74619293  0.25429876  0.56389293     0.11400
H1143       H  0.72645204  0.29152201  0.53073991     0.07700
C1144       C  0.71012606  0.28510773  0.48594571    -0.11400
C1145       C  0.69794473  0.30125863  0.46630348    -0.10700
C1146       C  0.71325208  0.30586323  0.44627573    -0.01600
C1147       C  0.74156894  0.29680425  0.44671105    -0.11800
C1148       C  0.75387036  0.28094640  0.46654815    -0.10200
H1149       H  0.69729063  0.27964870  0.50056202     0.07700
H1150       H  0.67605296  0.30841570  0.46667006     0.11400
H1151       H  0.75387605  0.30027976  0.43167290     0.11100
H1152       H  0.77574293  0.27351539  0.46633435     0.07700
C1153       C  0.79752854  0.38778706  0.60080302    -0.11400
C1154       C  0.77987192  0.39900775  0.61879301     0.05700
C1155       C  0.77766162  0.36770929  0.63691611    -0.10200
C1156       C  0.79054470  0.32438808  0.63604432    -0.11800
C1157       C  0.80616133  0.31145251  0.61710806    -0.01600
C1158       C  0.81060083  0.34450365  0.60000056    -0.10700
C1159       C  0.76163586  0.44047950  0.61758523     0.05700
H1160       H  0.76487815  0.37582874  0.65134586     0.07600
H1161       H  0.78695294  0.29997973  0.64963531     0.11100
H1162       H  0.82242054  0.33563447  0.58512631     0.11400
H1163       H  0.79971851  0.41101323  0.58656181     0.07700
C1164       C  0.77086235  0.48281061  0.60835744    -0.11400
C1165       C  0.75296047  0.52067673  0.60633343    -0.10700
C1166       C  0.72538531  0.51699544  0.61338152    -0.01600
C1167       C  0.71623612  0.47462454  0.62256220    -0.11800
C1168       C  0.73408163  0.43696881  0.62462680    -0.10200
H1169       H  0.79197178  0.48677008  0.60285571     0.07700
H1170       H  0.76076940  0.55290260  0.59934208     0.11400
H1171       H  0.69520117  0.47046412  0.62824409     0.11100
H1172       H  0.72605740  0.40465041  0.63133767     0.07700
C1173       C  0.68915075  0.88928762  0.60338844    -0.11400
C1174       C  0.71149276  0.89747810  0.61785480     0.05700
C1175       C  0.71860387  0.86288091  0.63344024    -0.10200
C1176       C  0.70543942  0.81970195  0.63324870    -0.11800
C1177       C  0.68484924  0.80971570  0.61736151    -0.01600
C1178       C  0.67597285  0.84571424  0.60310105    -0.10700
C1179       C  0.72914106  0.93967442  0.61548167     0.05700
H1180       H  0.73526414  0.86853353  0.64518389     0.07600
H1181       H  0.71265075  0.79310783  0.64468124     0.11100
H1182       H  0.66025623  0.83922544  0.59061878     0.11400
H1183       H  0.68311545  0.91539071  0.59125987     0.07700
C1184       C  0.75788365  0.93504275  0.61557616    -0.11400
C1185       C  0.77498284  0.97396796  0.61386310    -0.10700
C1186       C  0.76388712  0.01884241  0.61198635    -0.01600
C1187       C  0.73508509  0.02354756  0.61131619    -0.11800
C1188       C  0.71788391  0.98431982  0.61298192    -0.10200
H1189       H  0.76722785  0.90104807  0.61692427     0.07700
H1190       H  0.79700630  0.96883086  0.61422851     0.11400
H1191       H  0.72582945  0.05760117  0.60999109     0.11100
H1192       H  0.69581826  0.98896406  0.61284214     0.07700
C1193       C  0.83902707  0.90615348  0.21872423    -0.11400
C1194       C  0.81885587  0.87961313  0.22995572     0.05700
C1195       C  0.79932244  0.85552919  0.21691024    -0.10200
C1196       C  0.79997671  0.85797509  0.19335635    -0.11800
C1197       C  0.82039173  0.88404857  0.18223671    -0.01600
C1198       C  0.83991186  0.90803974  0.19522583    -0.10700
C1199       C  0.81822525  0.87746280  0.25510227     0.05700
H1200       H  0.78374424  0.83409573  0.22483481     0.07600
H1201       H  0.78475304  0.83876928  0.18384936     0.11100
H1202       H  0.85582231  0.92870477  0.18723622     0.11400
H1203       H  0.85403601  0.92614462  0.22805708     0.07700
C1204       C  0.84274127  0.87996637  0.26757526    -0.11400
C1205       C  0.84217406  0.88018554  0.29110474    -0.10700
C1206       C  0.81713805  0.87697409  0.30284655    -0.01600
C1207       C  0.79266036  0.87312871  0.29050648    -0.11800
C1208       C  0.79317303  0.87376159  0.26693150    -0.10200
H1209       H  0.86250231  0.88152743  0.25919961     0.07700
H1210       H  0.86144000  0.88252157  0.30012786     0.11400
H1211       H  0.77303058  0.87076404  0.29907627     0.11100
H1212       H  0.77381317  0.87245313  0.25803323     0.07700
C1213       C  0.96610441  0.87482485  0.36077000    -0.11400
C1214       C  0.97873054  0.83126179  0.36360100     0.05700
C1215       C  0.96182761  0.79220557  0.36745577    -0.10200
C1216       C  0.93331091  0.79702404  0.36963314    -0.11800
C1217       C  0.92095251  0.84094141  0.36776405    -0.01600
C1218       C  0.93763863  0.87951681  0.36266813    -0.10700
C1219       C  0.00935993  0.82757830  0.36418497     0.05700
H1220       H  0.97064058  0.75792306  0.36922453     0.07600
H1221       H  0.92104424  0.76650662  0.37338950     0.11100
H1222       H  0.92886659  0.91391878  0.36114565     0.11400
H1223       H  0.97824276  0.90594077  0.35815723     0.07700
C1224       C  0.02595546  0.85804618  0.35145844    -0.11400
C1225       C  0.05441776  0.85931380  0.35450064    -0.10700
C1226       C  0.06714195  0.82945367  0.36996992    -0.01600
C1227       C  0.05091113  0.79682180  0.38158466    -0.11800
C1228       C  0.02234201  0.79613786  0.37887477    -0.10200
H1229       H  0.01692552  0.88188279  0.33951129     0.07700
H1230       H  0.06642347  0.88462293  0.34516681     0.11400
H1231       H  0.06009185  0.77369235  0.39380168     0.11100
H1232       H  0.01039603  0.77257205  0.38923291     0.07700
C1233       C  0.85645941  0.94476117  0.48238635    -0.11400
C1234       C  0.86926411  0.98871402  0.48302521     0.05700
C1235       C  0.87891131  0.00800160  0.46261371    -0.10200
C1236       C  0.87488346  0.98485804  0.44209574    -0.11800
C1237       C  0.86190223  0.94128414  0.44168818    -0.01600
C1238       C  0.85316436  0.92120225  0.46201165    -0.10700
C1239       C  0.87059545  0.01533217  0.50463502     0.05700
H1240       H  0.88940754  0.04131225  0.46239681     0.07600
H1241       H  0.88200395  0.00071844  0.42664277     0.11100
H1242       H  0.84277506  0.88771801  0.46204259     0.11400
H1243       H  0.84810008  0.92913189  0.49744579     0.07700
C1244       C  0.86779429  0.06400225  0.50464504    -0.11400
C1245       C  0.86569574  0.08855308  0.52487321    -0.10700
C1246       C  0.86585077  0.06518788  0.54564965    -0.01600
C1247       C  0.86979635  0.01686465  0.54580649    -0.11800
C1248       C  0.87246698  0.99231838  0.52553993    -0.10200
H1249       H  0.86583336  0.08307031  0.48908202     0.07700
H1250       H  0.86248884  0.12585058  0.52415461     0.11400
H1251       H  0.87032800  0.99799569  0.56154738     0.11100
H1252       H  0.87541147  0.95502085  0.52630754     0.07700
C1253       C  0.76985843  0.78991668  0.48295024    -0.11400
C1254       C  0.74633935  0.76193364  0.48094502     0.05700
C1255       C  0.73456738  0.75552417  0.45953346    -0.10200
C1256       C  0.74668561  0.77536922  0.44043482    -0.11800
C1257       C  0.77090349  0.80156268  0.44240598    -0.01600
C1258       C  0.78204398  0.80940510  0.46389153    -0.10700
C1259       C  0.73392969  0.74017666  0.50119385     0.05700
H1260       H  0.71650639  0.73391412  0.45744151     0.07600
H1261       H  0.73790011  0.76827029  0.42403570     0.11100
H1262       H  0.80065582  0.82974581  0.46591359     0.11400
H1263       H  0.77895702  0.79654976  0.49926519     0.07700
C1264       C  0.75043934  0.72197012  0.51850850    -0.11400
C1265       C  0.73847747  0.70409889  0.53818490    -0.10700
C1266       C  0.70981186  0.70385060  0.54076246    -0.01600
C1267       C  0.69342243  0.72062599  0.52303713    -0.11800
C1268       C  0.70531815  0.73873984  0.50360444    -0.10200
H1269       H  0.77260174  0.72189529  0.51691057     0.07700
H1270       H  0.75161861  0.69132152  0.55147645     0.11400
H1271       H  0.67123676  0.72133403  0.52440728     0.11100
H1272       H  0.69205174  0.75304491  0.49077034     0.07700
C1273       C  0.75248364  0.06823579  0.36399871    -0.11400
C1274       C  0.72471415  0.06363125  0.37025556     0.05700
C1275       C  0.71542871  0.02044074  0.37841611    -0.10200
C1276       C  0.73346466  0.98260137  0.37992860    -0.11800
C1277       C  0.76124868  0.98730488  0.37354518    -0.01600
C1278       C  0.77047804  0.03070429  0.36564271    -0.10700
C1279       C  0.70625513  0.10477790  0.36911989     0.05700
H1280       H  0.69416849  0.01579170  0.38338410     0.07600
H1281       H  0.72562066  0.94964175  0.38601939     0.11100
H1282       H  0.79166326  0.03572409  0.36054523     0.11400
H1283       H  0.76049814  0.10126852  0.35814417     0.07700
C1284       C  0.68849729  0.11568371  0.38709632    -0.11400
C1285       C  0.67555254  0.15912075  0.38806513    -0.10700
C1286       C  0.68032583  0.19245759  0.37116619    -0.01600
C1287       C  0.69586248  0.17973623  0.35217238    -0.11800
C1288       C  0.70855806  0.13630864  0.35111125    -0.10200
H1289       H  0.68626244  0.09216752  0.40122092     0.07700
H1290       H  0.66385402  0.16807082  0.40299572     0.11400
H1291       H  0.69967281  0.20454057  0.33879111     0.11100
H1292       H  0.72145757  0.12838939  0.33671829     0.07700
C1293       C  0.77531281  0.63902124  0.35080018    -0.11400
C1294       C  0.77912695  0.60716224  0.36848565     0.05700
C1295       C  0.79808394  0.61834270  0.38548426    -0.10200
C1296       C  0.81084000  0.66211206  0.38590856    -0.11800
C1297       C  0.80477023  0.69565101  0.36941225    -0.01600
C1298       C  0.78784569  0.68277803  0.35131513    -0.10700
C1299       C  0.76118631  0.56515655  0.37033463     0.05700
H1300       H  0.80158113  0.59464578  0.39933594     0.07600
H1301       H  0.82375276  0.67086616  0.40011238     0.11100
H1302       H  0.78296976  0.70751160  0.33818184     0.11400
H1303       H  0.76153768  0.63097572  0.33705472     0.07700
C1304       C  0.73324408  0.56834121  0.36464291    -0.11400
C1305       C  0.71576891  0.53006611  0.36678965    -0.10700
C1306       C  0.72563820  0.48724554  0.37468871    -0.01600
C1307       C  0.75355172  0.48389285  0.38061055    -0.11800
C1308       C  0.77111682  0.52252973  0.37856712    -0.10200
H1309       H  0.72465353  0.60082791  0.35880603     0.07700
H1310       H  0.69446566  0.53403154  0.36197955     0.11400
H1311       H  0.76185256  0.45137327  0.38669875     0.11100
H1312       H  0.79251490  0.51887002  0.38312275     0.07700
loop_ 
_geom_bond_atom_site_label_1 
_geom_bond_atom_site_label_2 
_geom_bond_distance 
_geom_bond_site_symmetry_2 
_ccdc_geom_bond_type 
Fe1          O17   2.080       .  S
Fe1           O7   2.059       .  S
Fe1          O14   2.067       .  S
Fe1           O6   2.079       .  S
Fe1          O12   1.956       .  S
Fe2           O5   2.081       .  S
Fe2           O9   2.060       .  S
Fe2          O13   2.077       .  S
Fe2          O18   2.034       .  S
Fe2          O12   1.955       .  S
Fe3          O21   2.058       .  S
Fe3           O8   2.092       .  S
Fe3          O15   2.091       .  S
Fe3           O4   2.065       .  S
Fe3          O12   1.958       .  S
O4           C11   1.267       .  A
O5           C19   1.271       .  A
O6           C11   1.271       .  A
O7           C10   1.273       .  A
O8           C20   1.276       .  A
O9           C22   1.268       .  A
C10          O15   1.277       .  A
C10        C1206   1.482       .  S
C11        C1277   1.489       .  S
O13          C16   1.272       .  A
O14          C16   1.272       .  A
C16        C1237   1.475       .  S
O17          C22   1.272       .  A
O18          C20   1.266       .  A
C19          O21   1.268       .  A
C19        C1297   1.486       .  S
C20        C1257   1.473       .  S
C22        C1217   1.485       .  S
Fe23         O39   2.076       .  S
Fe23         O29   2.058       .  S
Fe23         O36   2.066       .  S
Fe23         O28   2.078       .  S
Fe23         O34   1.953       .  S
Fe24         O27   2.085       .  S
Fe24         O31   2.059       .  S
Fe24         O35   2.077       .  S
Fe24         O40   2.036       .  S
Fe24         O34   1.958       .  S
Fe25         O43   2.058       .  S
Fe25         O30   2.095       .  S
Fe25         O37   2.090       .  S
Fe25         O26   2.072       .  S
Fe25         O34   1.962       .  S
O26          C33   1.270       .  A
O27          C41   1.272       .  A
O28          C33   1.272       .  A
O29          C32   1.271       .  A
O30          C42   1.276       .  A
O31          C44   1.269       .  A
C32          O37   1.275       .  A
C32        C1097   1.480       .  S
C33        C1186   1.490       .  S
O35          C38   1.272       .  A
O36          C38   1.271       .  A
C38        C1246   1.483       .  S
O39          C44   1.272       .  A
O40          C42   1.266       .  A
C41          O43   1.268       .  A
C41        C1157   1.485       .  S
C42        C1137   1.471       .  S
C44        C1117   1.479       .  S
Fe45         O61   2.057       .  S
Fe45         O51   2.079       .  S
Fe45         O58   2.075       .  S
Fe45         O50   2.053       .  S
Fe45         O56   1.956       .  S
Fe46         O49   2.043       .  S
Fe46         O53   2.082       .  S
Fe46         O57   2.063       .  S
Fe46         O62   2.094       .  S
Fe46         O56   1.965       .  S
Fe47         O65   2.084       .  S
Fe47         O52   2.043       .  S
Fe47         O59   2.056       .  S
Fe47         O48   2.092       .  S
Fe47         O56   1.956       .  S
O48          C55   1.278       .  A
O49          C63   1.267       .  A
O50          C55   1.273       .  A
O51          C54   1.269       .  A
O52          C64   1.267       .  A
O53          C66   1.274       .  A
C54          O59   1.264       .  A
C54        C1086   1.488       .  S
C55         C997   1.481       .  S
O57          C60   1.269       .  A
O58          C60   1.270       .  A
C60        C1226   1.482       .  S
O61          C66   1.272       .  A
O62          C64   1.273       .  A
C63          O65   1.275       .  A
C63        C1017   1.478       .  S
C64        C1057   1.489       .  S
C66        C1037   1.481       .  S
Fe67         O83   2.057       .  S
Fe67         O73   2.074       .  S
Fe67         O80   2.078       .  S
Fe67         O72   2.055       .  S
Fe67         O78   1.944       .  S
Fe68         O71   2.044       .  S
Fe68         O75   2.080       .  S
Fe68         O79   2.063       .  S
Fe68         O84   2.083       .  S
Fe68         O78   1.951       .  S
Fe69         O87   2.090       .  S
Fe69         O74   2.057       .  S
Fe69         O81   2.068       .  S
Fe69         O70   2.090       .  S
Fe69         O78   1.948       .  S
O70          C77   1.277       .  A
O71          C85   1.268       .  A
O72          C77   1.272       .  A
O73          C76   1.270       .  A
O74          C86   1.268       .  A
O75          C88   1.272       .  A
C76          O81   1.268       .  A
C76         C937   1.487       .  S
C77         C926   1.481       .  S
O79          C82   1.270       .  A
O80          C82   1.272       .  A
C82        C1126   1.484       .  S
O83          C88   1.270       .  A
O84          C86   1.272       .  A
C85          O87   1.276       .  A
C85         C986   1.474       .  S
C86         C966   1.484       .  S
C88        C1046   1.481       .  S
Fe89        O105   2.077       .  S
Fe89         O95   2.048       .  S
Fe89        O102   2.060       .  S
Fe89         O94   2.076       .  S
Fe89        O100   1.945       .  S
Fe90         O93   2.089       .  S
Fe90         O97   2.061       .  S
Fe90        O101   2.095       .  S
Fe90        O106   2.033       .  S
Fe90        O100   1.947       .  S
Fe91        O109   2.052       .  S
Fe91         O96   2.097       .  S
Fe91        O103   2.107       .  S
Fe91         O92   2.067       .  S
Fe91        O100   1.945       .  S
O92          C99   1.264       .  A
O93         C107   1.273       .  A
O94          C99   1.268       .  A
O95          C98   1.273       .  A
O96         C108   1.278       .  A
O97         C110   1.268       .  A
C98         O103   1.281       .  A
C98         C866   1.484       .  S
C99        C1066   1.475       .  S
O101        C104   1.277       .  A
O102        C104   1.273       .  A
C104        C897   1.487       .  S
O105        C110   1.270       .  A
O106        C108   1.267       .  A
C107        O109   1.267       .  A
C107       C1077   1.484       .  S
C108        C977   1.480       .  S
C110        C886   1.483       .  S
Fe111       O127   2.079       .  S
Fe111       O117   2.055       .  S
Fe111       O124   2.065       .  S
Fe111       O116   2.078       .  S
Fe111       O122   1.946       .  S
Fe112       O115   2.089       .  S
Fe112       O119   2.059       .  S
Fe112       O123   2.083       .  S
Fe112       O128   2.044       .  S
Fe112       O122   1.951       .  S
Fe113       O131   2.055       .  S
Fe113       O118   2.089       .  S
Fe113       O125   2.089       .  S
Fe113       O114   2.068       .  S
Fe113       O122   1.952       .  S
O114        C121   1.270       .  A
O115        C129   1.273       .  A
O116        C121   1.272       .  A
O117        C120   1.270       .  A
O118        C130   1.274       .  A
O119        C132   1.270       .  A
C120        O125   1.275       .  A
C120        C817   1.482       .  S
C121        C957   1.487       .  S
O123        C126   1.273       .  A
O124        C126   1.270       .  A
C126        C906   1.488       .  S
O127        C132   1.273       .  A
O128        C130   1.267       .  A
C129        O131   1.269       .  A
C129        C946   1.485       .  S
C130       C1026   1.470       .  S
C132        C846   1.479       .  S
Fe133       O149   2.069       .  S
Fe133       O139   2.063       .  S
Fe133       O146   2.078       .  S
Fe133       O138   2.059       .  S
Fe133       O144   1.969       .  S
Fe134       O137   2.032       .  S
Fe134       O141   2.081       .  S
Fe134       O145   2.051       .  S
Fe134       O150   2.079       .  S
Fe134       O144   1.973       .  S
Fe135       O153   2.090       .  S
Fe135       O140   2.055       .  S
Fe135       O147   2.068       .  S
Fe135       O136   2.087       .  S
Fe135       O144   1.973       .  S
O136        C143   1.277       .  A
O137        C151   1.266       .  A
O138        C143   1.274       .  A
O139        C142   1.267       .  A
O140        C152   1.267       .  A
O141        C154   1.273       .  A
C142        O147   1.266       .  A
C142       C1306   1.487       .  S
C143        C777   1.483       .  S
O145        C148   1.266       .  A
O146        C148   1.270       .  A
C148        C877   1.481       .  S
O149        C154   1.272       .  A
O150        C152   1.270       .  A
C151        O153   1.276       .  A
C151       C1146   1.479       .  S
C152       C1286   1.481       .  S
C154        C806   1.490       .  S
Fe155       O171   2.060       .  S
Fe155       O161   2.074       .  S
Fe155       O168   2.075       .  S
Fe155       O160   2.054       .  S
Fe155       O166   1.953       .  S
Fe156       O159   2.027       .  S
Fe156       O163   2.103       .  S
Fe156       O167   2.060       .  S
Fe156       O172   2.095       .  S
Fe156       O166   1.956       .  S
Fe157       O175   2.097       .  S
Fe157       O162   2.048       .  S
Fe157       O169   2.062       .  S
Fe157       O158   2.102       .  S
Fe157       O166   1.953       .  S
O158        C165   1.281       .  A
O159        C173   1.265       .  A
O160        C165   1.275       .  A
O161        C164   1.267       .  A
O162        C174   1.267       .  A
O163        C176   1.280       .  A
C164        O169   1.264       .  A
C164       C1166   1.488       .  S
C165        C757   1.485       .  S
O167        C170   1.265       .  A
O168        C170   1.269       .  A
C170        C837   1.483       .  S
O171        C176   1.273       .  A
O172        C174   1.274       .  A
C173        O175   1.278       .  A
C173       C1266   1.479       .  S
C174       C1177   1.489       .  S
C176        C797   1.491       .  S
Fe177       O193   2.055       .  S
Fe177       O183   2.080       .  S
Fe177       O190   2.083       .  S
Fe177       O182   2.056       .  S
Fe177       O188   1.955       .  S
Fe178       O181   2.029       .  S
Fe178       O185   2.098       .  S
Fe178       O189   2.056       .  S
Fe178       O194   2.091       .  S
Fe178       O188   1.960       .  S
Fe179       O197   2.096       .  S
Fe179       O184   2.038       .  S
Fe179       O191   2.057       .  S
Fe179       O180   2.094       .  S
Fe179       O188   1.955       .  S
O180        C187   1.279       .  A
O181        C195   1.266       .  A
O182        C187   1.274       .  A
O183        C186   1.269       .  A
O184        C196   1.264       .  A
O185        C198   1.277       .  A
C186        O191   1.264       .  A
C186        C717   1.487       .  S
C187       C1197   1.484       .  S
O189        C192   1.266       .  A
O190        C192   1.271       .  A
C192        C666   1.484       .  S
O193        C198   1.271       .  A
O194        C196   1.273       .  A
C195        O197   1.277       .  A
C195        C697   1.480       .  S
C196        C746   1.485       .  S
C198        C677   1.488       .  S
Fe199       O215   2.061       .  S
Fe199       O205   2.077       .  S
Fe199       O212   2.081       .  S
Fe199       O204   2.056       .  S
Fe199       O210   1.949       .  S
Fe200       O203   2.039       .  S
Fe200       O207   2.091       .  S
Fe200       O211   2.060       .  S
Fe200       O216   2.100       .  S
Fe200       O210   1.958       .  S
Fe201       O219   2.090       .  S
Fe201       O206   2.053       .  S
Fe201       O213   2.067       .  S
Fe201       O202   2.090       .  S
Fe201       O210   1.952       .  S
O202        C209   1.276       .  A
O203        C217   1.267       .  A
O204        C209   1.271       .  A
O205        C208   1.271       .  A
O206        C218   1.268       .  A
O207        C220   1.274       .  A
C208        O213   1.269       .  A
C208        C646   1.488       .  S
C209       C1106   1.486       .  S
O211        C214   1.270       .  A
O212        C214   1.273       .  A
C214        C577   1.481       .  S
O215        C220   1.270       .  A
O216        C218   1.275       .  A
C217        O219   1.276       .  A
C217        C597   1.473       .  S
C218        C617   1.491       .  S
C220        C686   1.489       .  S
Fe221       O237   2.082       .  S
Fe221       O227   2.051       .  S
Fe221       O234   2.057       .  S
Fe221       O226   2.070       .  S
Fe221       O232   1.944       .  S
Fe222       O225   2.090       .  S
Fe222       O229   2.057       .  S
Fe222       O233   2.086       .  S
Fe222       O238   2.035       .  S
Fe222       O232   1.955       .  S
Fe223       O241   2.054       .  S
Fe223       O228   2.094       .  S
Fe223       O235   2.092       .  S
Fe223       O224   2.073       .  S
Fe223       O232   1.952       .  S
O224        C231   1.270       .  A
O225        C239   1.274       .  A
O226        C231   1.270       .  A
O227        C230   1.271       .  A
O228        C240   1.276       .  A
O229        C242   1.269       .  A
C230        O235   1.276       .  A
C230       C1006   1.482       .  S
C231        C557   1.488       .  S
O233        C236   1.272       .  A
O234        C236   1.269       .  A
C236        C517   1.485       .  S
O237        C242   1.274       .  A
O238        C240   1.265       .  A
C239        O241   1.268       .  A
C239        C546   1.484       .  S
C240        C497   1.468       .  S
C242        C657   1.480       .  S
Fe243       O259   2.082       .  S
Fe243       O249   2.058       .  S
Fe243       O256   2.062       .  S
Fe243       O248   2.074       .  S
Fe243       O254   1.953       .  S
Fe244       O247   2.090       .  S
Fe244       O251   2.062       .  S
Fe244       O255   2.085       .  S
Fe244       O260   2.042       .  S
Fe244       O254   1.955       .  S
Fe245       O263   2.053       .  S
Fe245       O250   2.085       .  S
Fe245       O257   2.080       .  S
Fe245       O246   2.067       .  S
Fe245       O254   1.955       .  S
O246        C253   1.268       .  A
O247        C261   1.273       .  A
O248        C253   1.271       .  A
O249        C252   1.272       .  A
O250        C262   1.274       .  A
O251        C264   1.270       .  A
C252        O257   1.275       .  A
C252        C917   1.481       .  S
C253        C446   1.487       .  S
O255        C258   1.273       .  A
O256        C258   1.270       .  A
C258        C526   1.487       .  S
O259        C264   1.273       .  A
O260        C262   1.267       .  A
C261        O263   1.267       .  A
C261        C466   1.488       .  S
C262        C477   1.465       .  S
C264        C586   1.485       .  S
Fe265       O281   2.061       .  S
Fe265       O271   2.067       .  S
Fe265       O278   2.080       .  S
Fe265       O270   2.054       .  S
Fe265       O276   1.951       .  S
Fe266       O269   2.025       .  S
Fe266       O273   2.083       .  S
Fe266       O277   2.050       .  S
Fe266       O282   2.088       .  S
Fe266       O276   1.958       .  S
Fe267       O285   2.099       .  S
Fe267       O272   2.052       .  S
Fe267       O279   2.067       .  S
Fe267       O268   2.097       .  S
Fe267       O276   1.954       .  S
O268        C275   1.279       .  A
O269        C283   1.265       .  A
O270        C275   1.273       .  A
O271        C274   1.268       .  A
O272        C284   1.267       .  A
O273        C286   1.273       .  A
C274        O279   1.267       .  A
C274        C537   1.486       .  S
C275        C857   1.484       .  S
O277        C280   1.267       .  A
O278        C280   1.272       .  A
C280        C397   1.475       .  S
O281        C286   1.270       .  A
O282        C284   1.272       .  A
C283        O285   1.278       .  A
C283        C486   1.477       .  S
C284        C566   1.484       .  S
C286        C417   1.485       .  S
Fe287       O303   2.053       .  S
Fe287       O293   2.071       .  S
Fe287       O300   2.085       .  S
Fe287       O292   2.055       .  S
Fe287       O298   1.952       .  S
Fe288       O291   2.028       .  S
Fe288       O295   2.092       .  S
Fe288       O299   2.055       .  S
Fe288       O304   2.083       .  S
Fe288       O298   1.959       .  S
Fe289       O307   2.098       .  S
Fe289       O294   2.053       .  S
Fe289       O301   2.068       .  S
Fe289       O290   2.094       .  S
Fe289       O298   1.956       .  S
O290        C297   1.279       .  A
O291        C305   1.266       .  A
O292        C297   1.274       .  A
O293        C296   1.268       .  A
O294        C306   1.267       .  A
O295        C308   1.274       .  A
C296        O301   1.267       .  A
C296        C457   1.488       .  S
C297        C826   1.483       .  S
O299        C302   1.266       .  A
O300        C302   1.273       .  A
C302        C377   1.484       .  S
O303        C308   1.269       .  A
O304        C306   1.271       .  A
C305        O307   1.278       .  A
C305        C506   1.479       .  S
C306        C437   1.483       .  S
C308        C426   1.485       .  S
Fe309       O325   2.073       .  S
Fe309       O315   2.049       .  S
Fe309       O322   2.063       .  S
Fe309       O314   2.076       .  S
Fe309       O320   1.951       .  S
Fe310       O313   2.089       .  S
Fe310       O317   2.057       .  S
Fe310       O321   2.088       .  S
Fe310       O326   2.030       .  S
Fe310       O320   1.946       .  S
Fe311       O329   2.053       .  S
Fe311       O316   2.094       .  S
Fe311       O323   2.102       .  S
Fe311       O312   2.060       .  S
Fe311       O320   1.948       .  S
O312        C319   1.264       .  A
O313        C327   1.273       .  A
O314        C319   1.267       .  A
O315        C318   1.273       .  A
O316        C328   1.276       .  A
O317        C330   1.267       .  A
C318        O323   1.280       .  A
C318        C786   1.483       .  S
C319        C737   1.471       .  S
O321        C324   1.276       .  A
O322        C324   1.274       .  A
C324        C366   1.481       .  S
O325        C330   1.269       .  A
O326        C328   1.266       .  A
C327        O329   1.268       .  A
C327        C726   1.487       .  S
C328        C606   1.479       .  S
C330        C406   1.481       .  S
Fe331       O347   2.078       .  S
Fe331       O337   2.064       .  S
Fe331       O344   2.071       .  S
Fe331       O336   2.076       .  S
Fe331       O342   1.964       .  S
Fe332       O335   2.081       .  S
Fe332       O339   2.060       .  S
Fe332       O343   2.069       .  S
Fe332       O348   2.039       .  S
Fe332       O342   1.966       .  S
Fe333       O351   2.056       .  S
Fe333       O338   2.084       .  S
Fe333       O345   2.082       .  S
Fe333       O334   2.073       .  S
Fe333       O342   1.965       .  S
O334        C341   1.269       .  A
O335        C349   1.271       .  A
O336        C341   1.271       .  A
O337        C340   1.273       .  A
O338        C350   1.274       .  A
O339        C352   1.269       .  A
C340        O345   1.274       .  A
C340        C766   1.484       .  S
C341        C626   1.492       .  S
O343        C346   1.270       .  A
O344        C346   1.271       .  A
C346        C357   1.478       .  S
O347        C352   1.272       .  A
O348        C350   1.266       .  A
C349        O351   1.267       .  A
C349        C637   1.485       .  S
C350        C706   1.470       .  S
C352        C386   1.482       .  S
C353        C354   1.407       .  A
C353        C358   1.395       .  A
C353        H363   1.082       .  S
C354        C359   1.498   1_556  S
C354        C355   1.413       .  A
C355        C356   1.403       .  A
C355        H360   1.082       .  S
C356        C357   1.402       .  A
C356        H361   1.084       .  S
C357        C358   1.404       .  A
C358        H362   1.084       .  S
C359        C364   1.408       .  A
C359        C368   1.412       .  A
C364        C365   1.397       .  A
C364        H369   1.082   1_554  S
C365        C366   1.405       .  A
C365        H370   1.083       .  S
C366        C367   1.403       .  A
C367        C368   1.401       .  A
C367        H371   1.083       .  S
C368        H372   1.081       .  S
C373        C374   1.408       .  A
C373        C378   1.402       .  A
C373        H383   1.082       .  S
C374        C379   1.494       .  S
C374        C375   1.408       .  A
C375        C376   1.395       .  A
C375        H380   1.082       .  S
C376        C377   1.404       .  A
C376        H381   1.083       .  S
C377        C378   1.407       .  A
C378        H382   1.083       .  S
C379        C384   1.408       .  A
C379        C388   1.408       .  A
C384        C385   1.397       .  A
C384        H389   1.083       .  S
C385        C386   1.404       .  A
C385        H390   1.083       .  S
C386        C387   1.405       .  A
C387        C388   1.400       .  A
C387        H391   1.083       .  S
C388        H392   1.082       .  S
C393        C394   1.407       .  A
C393        C398   1.397       .  A
C393        H403   1.082       .  S
C394        C399   1.488       .  S
C394        C395   1.408       .  A
C395        C396   1.397       .  A
C395        H400   1.083       .  S
C396        C397   1.403       .  A
C396        H401   1.083       .  S
C397        C398   1.404       .  A
C398        H402   1.084       .  S
C399        C404   1.407       .  A
C399        C408   1.406       .  A
C404        C405   1.399       .  A
C404        H409   1.082       .  S
C405        C406   1.405       .  A
C405        H410   1.083       .  S
C406        C407   1.405       .  A
C407        C408   1.394       .  A
C407        H411   1.083       .  S
C408        H412   1.082       .  S
C413        C414   1.406       .  A
C413        C418   1.398       .  A
C413        H423   1.082   1_554  S
C414        C419   1.490   1_554  S
C414        C415   1.407       .  A
C415        C416   1.401       .  A
C415        H420   1.083       .  S
C416        C417   1.406       .  A
C416        H421   1.083       .  S
C417        C418   1.406       .  A
C418        H422   1.083       .  S
C419        C424   1.407       .  A
C419        C428   1.406       .  A
C424        C425   1.401       .  A
C424        H429   1.082       .  S
C425        C426   1.407       .  A
C425        H430   1.083       .  S
C426        C427   1.406       .  A
C427        C428   1.397       .  A
C427        H431   1.083       .  S
C428        H432   1.083       .  S
C433        C434   1.406       .  A
C433        C438   1.402       .  A
C433        H443   1.082       .  S
C434        C439   1.489       .  S
C434        C435   1.406       .  A
C435        C436   1.396       .  A
C435        H440   1.083       .  S
C436        C437   1.405       .  A
C436        H441   1.083       .  S
C437        C438   1.407       .  A
C438        H442   1.083       .  S
C439        C444   1.405       .  A
C439        C448   1.406       .  A
C444        C445   1.395       .  A
C444        H449   1.083       .  S
C445        C446   1.405   1_565  A
C445        H450   1.083       .  S
C446        C447   1.409       .  A
C447        C448   1.404   1_545  A
C447        H451   1.083       .  S
C448        H452   1.083       .  S
C453        C454   1.405       .  A
C453        C458   1.395       .  A
C453        H463   1.083       .  S
C454        C459   1.489       .  S
C454        C455   1.406       .  A
C455        C456   1.405       .  A
C455        H460   1.083       .  S
C456        C457   1.409       .  A
C456        H461   1.083       .  S
C457        C458   1.406       .  A
C458        H462   1.083       .  S
C459        C464   1.405       .  A
C459        C468   1.406       .  A
C464        C465   1.396       .  A
C464        H469   1.083       .  S
C465        C466   1.407       .  A
C465        H470   1.083       .  S
C466        C467   1.409       .  A
C467        C468   1.404       .  A
C467        H471   1.083       .  S
C468        H472   1.083       .  S
C473        C474   1.405       .  A
C473        C478   1.394       .  A
C473        H483   1.083   1_556  S
C474        C479   1.482   1_556  S
C474        C475   1.407       .  A
C475        C476   1.396       .  A
C475        H480   1.083       .  S
C476        C477   1.401       .  A
C476        H481   1.084       .  S
C477        C478   1.402       .  A
C478        H482   1.083       .  S
C479        C484   1.408       .  A
C479        C488   1.402       .  A
C484        C485   1.398       .  A
C484        H489   1.083       .  S
C485        C486   1.402       .  A
C485        H490   1.082       .  S
C486        C487   1.409       .  A
C487        C488   1.391       .  A
C487        H491   1.084       .  S
C488        H492   1.082   1_554  S
C493        C494   1.404       .  A
C493        C498   1.395       .  A
C493        H503   1.083   1_554  S
C494        C499   1.481   1_554  S
C494        C495   1.408       .  A
C495        C496   1.395       .  A
C495        H500   1.083       .  S
C496        C497   1.401       .  A
C496        H501   1.084       .  S
C497        C498   1.404       .  A
C498        H502   1.083       .  S
C499        C504   1.409       .  A
C499        C508   1.400       .  A
C504        C505   1.401       .  A
C504        H509   1.083       .  S
C505        C506   1.404       .  A
C505        H510   1.083       .  S
C506        C507   1.408       .  A
C507        C508   1.389       .  A
C507        H511   1.083       .  S
C508        H512   1.083   1_556  S
C513        C514   1.407       .  A
C513        C518   1.401       .  A
C513        H523   1.082   1_554  S
C514        C519   1.490   1_564  S
C514        C515   1.406       .  A
C515        C516   1.397       .  A
C515        H520   1.083   1_565  S
C516        C517   1.406       .  A
C516        H521   1.083       .  S
C517        C518   1.407       .  A
C518        H522   1.083       .  S
C519        C524   1.406       .  A
C519        C528   1.407   1_545  A
C524        C525   1.398       .  A
C524        H529   1.083   1_556  S
C525        C526   1.407       .  A
C525        H530   1.083       .  S
C526        C527   1.407       .  A
C527        C528   1.401   1_545  A
C527        H531   1.083   1_545  S
C528        H532   1.083       .  S
C533        C534   1.407       .  A
C533        C538   1.403       .  A
C533        H543   1.083       .  S
C534        C539   1.488       .  S
C534        C535   1.405       .  A
C535        C536   1.395       .  A
C535        H540   1.083       .  S
C536        C537   1.406       .  A
C536        H541   1.083       .  S
C537        C538   1.408       .  A
C538        H542   1.083       .  S
C539        C544   1.405       .  A
C539        C548   1.406       .  A
C544        C545   1.401       .  A
C544        H549   1.083       .  S
C545        C546   1.407       .  A
C545        H550   1.083       .  S
C546        C547   1.406       .  A
C547        C548   1.397       .  A
C547        H551   1.083       .  S
C548        H552   1.083       .  S
C553        C554   1.407       .  A
C553        C558   1.405   1_545  A
C553        H563   1.083       .  S
C554        C559   1.489       .  S
C554        C555   1.405       .  A
C555        C556   1.394       .  A
C555        H560   1.083       .  S
C556        C557   1.406   1_545  A
C556        H561   1.083       .  S
C557        C558   1.409       .  A
C558        H562   1.082       .  S
C559        C564   1.405       .  A
C559        C568   1.406       .  A
C564        C565   1.396       .  A
C564        H569   1.083       .  S
C565        C566   1.405       .  A
C565        H570   1.083       .  S
C566        C567   1.408       .  A
C567        C568   1.404       .  A
C567        H571   1.083       .  S
C568        H572   1.083       .  S
C573        C574   1.408       .  A
C573        C578   1.397       .  A
C573        H583   1.083       .  S
C574        C579   1.492   1_655  S
C574        C575   1.408       .  A
C575        C576   1.400       .  A
C575        H580   1.082       .  S
C576        C577   1.405       .  A
C576        H581   1.083       .  S
C577        C578   1.404       .  A
C578        H582   1.083       .  S
C579        C584   1.407       .  A
C579        C588   1.408       .  A
C584        C585   1.395       .  A
C584        H589   1.083       .  S
C585        C586   1.405       .  A
C585        H590   1.083       .  S
C586        C587   1.407       .  A
C587        C588   1.402       .  A
C587        H591   1.083       .  S
C588        H592   1.082       .  S
C593        C594   1.405       .  A
C593        C598   1.396       .  A
C593        H603   1.083   1_556  S
C594        C599   1.486   1_556  S
C594        C595   1.408       .  A
C595        C596   1.394       .  A
C595        H600   1.082       .  S
C596        C597   1.401       .  A
C596        H601   1.084       .  S
C597        C598   1.406       .  A
C598        H602   1.083       .  S
C599        C604   1.402       .  A
C599        C608   1.410       .  A
C604        C605   1.389       .  A
C604        H609   1.082   1_554  S
C605        C606   1.407       .  A
C605        H610   1.083       .  S
C606        C607   1.404       .  A
C607        C608   1.401       .  A
C607        H611   1.083       .  S
C608        H612   1.082       .  S
C613        C614   1.408       .  A
C613        C618   1.406       .  A
C613        H623   1.082       .  S
C614        C619   1.495       .  S
C614        C615   1.406       .  A
C615        C616   1.397       .  A
C615        H620   1.083       .  S
C616        C617   1.407       .  A
C616        H621   1.083       .  S
C617        C618   1.409       .  A
C618        H622   1.083       .  S
C619        C624   1.407       .  A
C619        C628   1.408       .  A
C624        C625   1.397       .  A
C624        H629   1.082       .  S
C625        C626   1.406       .  A
C625        H630   1.083       .  S
C626        C627   1.410       .  A
C627        C628   1.407       .  A
C627        H631   1.082       .  S
C628        H632   1.083       .  S
C633        C634   1.406       .  A
C633        C638   1.403       .  A
C633        H643   1.083       .  S
C634        C639   1.488       .  S
C634        C635   1.405       .  A
C635        C636   1.397       .  A
C635        H640   1.083       .  S
C636        C637   1.406       .  A
C636        H641   1.083       .  S
C637        C638   1.408       .  A
C638        H642   1.083       .  S
C639        C644   1.406       .  A
C639        C648   1.405       .  A
C644        C645   1.404   1_565  A
C644        H649   1.083       .  S
C645        C646   1.409       .  A
C645        H650   1.083       .  S
C646        C647   1.406   1_545  A
C647        C648   1.396       .  A
C647        H651   1.083       .  S
C648        H652   1.083       .  S
C653        C654   1.407       .  A
C653        C658   1.400       .  A
C653        H663   1.083       .  S
C654        C659   1.490   1_455  S
C654        C655   1.407       .  A
C655        C656   1.397       .  A
C655        H660   1.083       .  S
C656        C657   1.404       .  A
C656        H661   1.084       .  S
C657        C658   1.405       .  A
C658        H662   1.083       .  S
C659        C664   1.406       .  A
C659        C668   1.407       .  A
C664        C665   1.395       .  A
C664        H669   1.083       .  S
C665        C666   1.405       .  A
C665        H670   1.083       .  S
C666        C667   1.407       .  A
C667        C668   1.401       .  A
C667        H671   1.083       .  S
C668        H672   1.082       .  S
C673        C674   1.406   1_545  A
C673        C678   1.398   1_545  A
C673        H683   1.082       .  S
C674        C679   1.492   1_564  S
C674        C675   1.407       .  A
C675        C676   1.402       .  A
C675        H680   1.083   1_554  S
C676        C677   1.408       .  A
C676        H681   1.082       .  S
C677        C678   1.406       .  A
C678        H682   1.084   1_565  S
C679        C684   1.407   1_545  A
C679        C688   1.407       .  A
C684        C685   1.400   1_565  A
C684        H689   1.082       .  S
C685        C686   1.407       .  A
C685        H690   1.084   1_545  S
C686        C687   1.407       .  A
C687        C688   1.400       .  A
C687        H691   1.082       .  S
C688        H692   1.083       .  S
C693        C694   1.401       .  A
C693        C698   1.390       .  A
C693        H703   1.082   1_554  S
C694        C699   1.483   1_554  S
C694        C695   1.409       .  A
C695        C696   1.400       .  A
C695        H700   1.083       .  S
C696        C697   1.404       .  A
C696        H701   1.083       .  S
C697        C698   1.409       .  A
C698        H702   1.083       .  S
C699        C704   1.408       .  A
C699        C708   1.404       .  A
C704        C705   1.396       .  A
C704        H709   1.083       .  S
C705        C706   1.402       .  A
C705        H710   1.083       .  S
C706        C707   1.404       .  A
C707        C708   1.394       .  A
C707        H711   1.084       .  S
C708        H712   1.083   1_556  S
C713        C714   1.405       .  A
C713        C718   1.403   1_545  A
C713        H723   1.083       .  S
C714        C719   1.489       .  S
C714        C715   1.406       .  A
C715        C716   1.397       .  A
C715        H720   1.083       .  S
C716        C717   1.405   1_545  A
C716        H721   1.083       .  S
C717        C718   1.409       .  A
C718        H722   1.083       .  S
C719        C724   1.406       .  A
C719        C728   1.405       .  A
C724        C725   1.403       .  A
C724        H729   1.083       .  S
C725        C726   1.408       .  A
C725        H730   1.083       .  S
C726        C727   1.407       .  A
C727        C728   1.396       .  A
C727        H731   1.083       .  S
C728        H732   1.083       .  S
C733        C734   1.409       .  A
C733        C738   1.395       .  A
C733        H743   1.082       .  S
C734        C739   1.495       .  S
C734        C735   1.411       .  A
C735        C736   1.401       .  A
C735        H740   1.082       .  S
C736        C737   1.401       .  A
C736        H741   1.083       .  S
C737        C738   1.401       .  A
C738        H742   1.083       .  S
C739        C744   1.406       .  A
C739        C748   1.411       .  A
C744        C745   1.392       .  A
C744        H749   1.082       .  S
C745        C746   1.407       .  A
C745        H750   1.083       .  S
C746        C747   1.405       .  A
C747        C748   1.404       .  A
C747        H751   1.083       .  S
C748        H752   1.082       .  S
C753        C754   1.406       .  A
C753        C758   1.396       .  A
C753        H763   1.082       .  S
C754        C759   1.492       .  S
C754        C755   1.408       .  A
C755        C756   1.402       .  A
C755        H760   1.083       .  S
C756        C757   1.406       .  A
C756        H761   1.083       .  S
C757        C758   1.406       .  A
C758        H762   1.083       .  S
C759        C764   1.407       .  A
C759        C768   1.407       .  A
C764        C765   1.401       .  A
C764        H769   1.082       .  S
C765        C766   1.407       .  A
C765        H770   1.083       .  S
C766        C767   1.404       .  A
C767        C768   1.397       .  A
C767        H771   1.083       .  S
C768        H772   1.083       .  S
C773        C774   1.405       .  A
C773        C778   1.395       .  A
C773        H783   1.083       .  S
C774        C779   1.487       .  S
C774        C775   1.407       .  A
C775        C776   1.402       .  A
C775        H780   1.082       .  S
C776        C777   1.407       .  A
C776        H781   1.083       .  S
C777        C778   1.405       .  A
C778        H782   1.083       .  S
C779        C784   1.405       .  A
C779        C788   1.407       .  A
C784        C785   1.395       .  A
C784        H789   1.083       .  S
C785        C786   1.406       .  A
C785        H790   1.084       .  S
C786        C787   1.406       .  A
C787        C788   1.401       .  A
C787        H791   1.083       .  S
C788        H792   1.083       .  S
C793        C794   1.407       .  A
C793        C798   1.402       .  A
C793        H803   1.083       .  S
C794        C799   1.496       .  S
C794        C795   1.408       .  A
C795        C796   1.401       .  A
C795        H800   1.082       .  S
C796        C797   1.407       .  A
C796        H801   1.083       .  S
C797        C798   1.408       .  A
C798        H802   1.082       .  S
C799        C804   1.407       .  A
C799        C808   1.408       .  A
C804        C805   1.401       .  A
C804        H809   1.083       .  S
C805        C806   1.408       .  A
C805        H810   1.082       .  S
C806        C807   1.407       .  A
C807        C808   1.401       .  A
C807        H811   1.083       .  S
C808        H812   1.082       .  S
C813        C814   1.406       .  A
C813        C818   1.397       .  A
C813        H823   1.083       .  S
C814        C819   1.489       .  S
C814        C815   1.407       .  A
C815        C816   1.400       .  A
C815        H820   1.082       .  S
C816        C817   1.405       .  A
C816        H821   1.083       .  S
C817        C818   1.405       .  A
C818        H822   1.083       .  S
C819        C824   1.406       .  A
C819        C828   1.407       .  A
C824        C825   1.396       .  A
C824        H829   1.082       .  S
C825        C826   1.406       .  A
C825        H830   1.083       .  S
C826        C827   1.406       .  A
C827        C828   1.401       .  A
C827        H831   1.083       .  S
C828        H832   1.083       .  S
C833        C834   1.407       .  A
C833        C838   1.402       .  A
C833        H843   1.083       .  S
C834        C839   1.489       .  S
C834        C835   1.406       .  A
C835        C836   1.394       .  A
C835        H840   1.082       .  S
C836        C837   1.405       .  A
C836        H841   1.083       .  S
C837        C838   1.407       .  A
C838        H842   1.083       .  S
C839        C844   1.407       .  A
C839        C848   1.407       .  A
C844        C845   1.397       .  A
C844        H849   1.083       .  S
C845        C846   1.404       .  A
C845        H850   1.083       .  S
C846        C847   1.405       .  A
C847        C848   1.399       .  A
C847        H851   1.083       .  S
C848        H852   1.082       .  S
C853        C854   1.408       .  A
C853        C858   1.403       .  A
C853        H863   1.082       .  S
C854        C859   1.491       .  S
C854        C855   1.406       .  A
C855        C856   1.395       .  A
C855        H860   1.083       .  S
C856        C857   1.405       .  A
C856        H861   1.083       .  S
C857        C858   1.407       .  A
C858        H862   1.083       .  S
C859        C864   1.408       .  A
C859        C868   1.406       .  A
C864        C865   1.403       .  A
C864        H869   1.083       .  S
C865        C866   1.406       .  A
C865        H870   1.083       .  S
C866        C867   1.405       .  A
C867        C868   1.395       .  A
C867        H871   1.084       .  S
C868        H872   1.082       .  S
C873        C874   1.406       .  A
C873        C878   1.395       .  A
C873        H883   1.082       .  S
C874        C879   1.490       .  S
C874        C875   1.408       .  A
C875        C876   1.400       .  A
C875        H880   1.083       .  S
C876        C877   1.405       .  A
C876        H881   1.083       .  S
C877        C878   1.405       .  A
C878        H882   1.083       .  S
C879        C884   1.408       .  A
C879        C888   1.406       .  A
C884        C885   1.400       .  A
C884        H889   1.082       .  S
C885        C886   1.405       .  A
C885        H890   1.083       .  S
C886        C887   1.406       .  A
C887        C888   1.396       .  A
C887        H891   1.083       .  S
C888        H892   1.082       .  S
C893        C894   1.406       .  A
C893        C898   1.402       .  A
C893        H903   1.083       .  S
C894        C899   1.491       .  S
C894        C895   1.407       .  A
C895        C896   1.398       .  A
C895        H900   1.082       .  S
C896        C897   1.405       .  A
C896        H901   1.083       .  S
C897        C898   1.409       .  A
C898        H902   1.083       .  S
C899        C904   1.408       .  A
C899        C908   1.405       .  A
C904        C905   1.402       .  A
C904        H909   1.083       .  S
C905        C906   1.407       .  A
C905        H910   1.083       .  S
C906        C907   1.407       .  A
C907        C908   1.398       .  A
C907        H911   1.082       .  S
C908        H912   1.083       .  S
C913        C914   1.407       .  A
C913        C918   1.397       .  A
C913        H923   1.083       .  S
C914        C919   1.489       .  S
C914        C915   1.407       .  A
C915        C916   1.397       .  A
C915        H920   1.082       .  S
C916        C917   1.405       .  A
C916        H921   1.083       .  S
C917        C918   1.405       .  A
C918        H922   1.083       .  S
C919        C924   1.407       .  A
C919        C928   1.407       .  A
C924        C925   1.398       .  A
C924        H929   1.083       .  S
C925        C926   1.405       .  A
C925        H930   1.083       .  S
C926        C927   1.405       .  A
C927        C928   1.397       .  A
C927        H931   1.084       .  S
C928        H932   1.082       .  S
C933        C934   1.407       .  A
C933        C938   1.404   1_565  A
C933        H943   1.083       .  S
C934        C939   1.489       .  S
C934        C935   1.405       .  A
C935        C936   1.395       .  A
C935        H940   1.083       .  S
C936        C937   1.406   1_565  A
C936        H941   1.083       .  S
C937        C938   1.408       .  A
C938        H942   1.083       .  S
C939        C944   1.406       .  A
C939        C948   1.406       .  A
C944        C945   1.402       .  A
C944        H949   1.083       .  S
C945        C946   1.408       .  A
C945        H950   1.083       .  S
C946        C947   1.405       .  A
C947        C948   1.397       .  A
C947        H951   1.083       .  S
C948        H952   1.083       .  S
C953        C954   1.405       .  A
C953        C958   1.395       .  A
C953        H963   1.083       .  S
C954        C959   1.489       .  S
C954        C955   1.407       .  A
C955        C956   1.404       .  A
C955        H960   1.082       .  S
C956        C957   1.408       .  A
C956        H961   1.083       .  S
C957        C958   1.406       .  A
C958        H962   1.083       .  S
C959        C964   1.406       .  A
C959        C968   1.406       .  A
C964        C965   1.402       .  A
C964        H969   1.083       .  S
C965        C966   1.408       .  A
C965        H970   1.083       .  S
C966        C967   1.405       .  A
C967        C968   1.397       .  A
C967        H971   1.083       .  S
C968        H972   1.083       .  S
C973        C974   1.410       .  A
C973        C978   1.400       .  A
C973        H983   1.082       .  S
C974        C979   1.487       .  S
C974        C975   1.403       .  A
C975        C976   1.392       .  A
C975        H980   1.083       .  S
C976        C977   1.408       .  A
C976        H981   1.083       .  S
C977        C978   1.403       .  A
C978        H982   1.083       .  S
C979        C984   1.409       .  A
C979        C988   1.405       .  A
C984        C985   1.397       .  A
C984        H989   1.082       .  S
C985        C986   1.402       .  A
C985        H990   1.084       .  S
C986        C987   1.405       .  A
C987        C988   1.395       .  A
C987        H991   1.083       .  S
C988        H992   1.083       .  S
C993        C994   1.407       .  A
C993        C998   1.395       .  A
C993       H1003   1.083       .  S
C994        C999   1.490       .  S
C994        C995   1.408       .  A
C995        C996   1.401       .  A
C995       H1000   1.082       .  S
C996        C997   1.406       .  A
C996       H1001   1.083       .  S
C997        C998   1.404       .  A
C998       H1002   1.083       .  S
C999       C1004   1.408       .  A
C999       C1008   1.406       .  A
C1004      C1005   1.401       .  A
C1004      H1009   1.083       .  S
C1005      C1006   1.406       .  A
C1005      H1010   1.083       .  S
C1006      C1007   1.404       .  A
C1007      C1008   1.395       .  A
C1007      H1011   1.083       .  S
C1008      H1012   1.082       .  S
C1013      C1014   1.404       .  A
C1013      C1018   1.394       .  A
C1013      H1023   1.083       .  S
C1014      C1019   1.485       .  S
C1014      C1015   1.408       .  A
C1015      C1016   1.397       .  A
C1015      H1020   1.082       .  S
C1016      C1017   1.403       .  A
C1016      H1021   1.083       .  S
C1017      C1018   1.407       .  A
C1018      H1022   1.083       .  S
C1019      C1024   1.407       .  A
C1019      C1028   1.407       .  A
C1024      C1025   1.397       .  A
C1024      H1029   1.082       .  S
C1025      C1026   1.403       .  A
C1025      H1030   1.084       .  S
C1026      C1027   1.402       .  A
C1027      C1028   1.395       .  A
C1027      H1031   1.083       .  S
C1028      H1032   1.083       .  S
C1033      C1034   1.406   1_545  A
C1033      C1038   1.397   1_545  A
C1033      H1043   1.082       .  S
C1034      C1039   1.482   1_565  S
C1034      C1035   1.403       .  A
C1035      C1036   1.396       .  A
C1035      H1040   1.084       .  S
C1036      C1037   1.407       .  A
C1036      H1041   1.082       .  S
C1037      C1038   1.406       .  A
C1038      H1042   1.083   1_565  S
C1039      C1044   1.406   1_545  A
C1039      C1048   1.403       .  A
C1044      C1045   1.397   1_565  A
C1044      H1049   1.082       .  S
C1045      C1046   1.405       .  A
C1045      H1050   1.084   1_545  S
C1046      C1047   1.407       .  A
C1047      C1048   1.396       .  A
C1047      H1051   1.082       .  S
C1048      H1052   1.084       .  S
C1053      C1054   1.406       .  A
C1053      C1058   1.391       .  A
C1053      H1063   1.082       .  S
C1054      C1059   1.497       .  S
C1054      C1055   1.411       .  A
C1055      C1056   1.408       .  A
C1055      H1060   1.082       .  S
C1056      C1057   1.408       .  A
C1056      H1061   1.083       .  S
C1057      C1058   1.406       .  A
C1058      H1062   1.082       .  S
C1059      C1064   1.409       .  A
C1059      C1068   1.411       .  A
C1064      C1065   1.394       .  A
C1064      H1069   1.082       .  S
C1065      C1066   1.400       .  A
C1065      H1070   1.084       .  S
C1066      C1067   1.404       .  A
C1067      C1068   1.405       .  A
C1067      H1071   1.083       .  S
C1068      H1072   1.082       .  S
C1073      C1074   1.406       .  A
C1073      C1078   1.397       .  A
C1073      H1083   1.083       .  S
C1074      C1079   1.490       .  S
C1074      C1075   1.407       .  A
C1075      C1076   1.402       .  A
C1075      H1080   1.083       .  S
C1076      C1077   1.407       .  A
C1076      H1081   1.083       .  S
C1077      C1078   1.406       .  A
C1078      H1082   1.083       .  S
C1079      C1084   1.407       .  A
C1079      C1088   1.405       .  A
C1084      C1085   1.398       .  A
C1084      H1089   1.083       .  S
C1085      C1086   1.405   1_545  A
C1085      H1090   1.083       .  S
C1086      C1087   1.409       .  A
C1087      C1088   1.402   1_565  A
C1087      H1091   1.083       .  S
C1088      H1092   1.083       .  S
C1093      C1094   1.409       .  A
C1093      C1098   1.401       .  A
C1093      H1103   1.082       .  S
C1094      C1099   1.495       .  S
C1094      C1095   1.408       .  A
C1095      C1096   1.397       .  A
C1095      H1100   1.082       .  S
C1096      C1097   1.404       .  A
C1096      H1101   1.083       .  S
C1097      C1098   1.404       .  A
C1098      H1102   1.083       .  S
C1099      C1104   1.408       .  A
C1099      C1108   1.408       .  A
C1104      C1105   1.401       .  A
C1104      H1109   1.082       .  S
C1105      C1106   1.406       .  A
C1105      H1110   1.083       .  S
C1106      C1107   1.406       .  A
C1107      C1108   1.397       .  A
C1107      H1111   1.083       .  S
C1108      H1112   1.082       .  S
C1113      C1114   1.408       .  A
C1113      C1118   1.399       .  A
C1113      H1123   1.082       .  S
C1114      C1119   1.492   1_655  S
C1114      C1115   1.408       .  A
C1115      C1116   1.397       .  A
C1115      H1120   1.082       .  S
C1116      C1117   1.404       .  A
C1116      H1121   1.083       .  S
C1117      C1118   1.404       .  A
C1118      H1122   1.083       .  S
C1119      C1124   1.406       .  A
C1119      C1128   1.409       .  A
C1124      C1125   1.394       .  A
C1124      H1129   1.082       .  S
C1125      C1126   1.406       .  A
C1125      H1130   1.083       .  S
C1126      C1127   1.406       .  A
C1127      C1128   1.402       .  A
C1127      H1131   1.083       .  S
C1128      H1132   1.082       .  S
C1133      C1134   1.409       .  A
C1133      C1138   1.398       .  A
C1133      H1143   1.083       .  S
C1134      C1139   1.486       .  S
C1134      C1135   1.405       .  A
C1135      C1136   1.394       .  A
C1135      H1140   1.083       .  S
C1136      C1137   1.404       .  A
C1136      H1141   1.084       .  S
C1137      C1138   1.402       .  A
C1138      H1142   1.085       .  S
C1139      C1144   1.403       .  A
C1139      C1148   1.409       .  A
C1144      C1145   1.391       .  A
C1144      H1149   1.079       .  S
C1145      C1146   1.407       .  A
C1145      H1150   1.086       .  S
C1146      C1147   1.404       .  A
C1147      C1148   1.401       .  A
C1147      H1151   1.078       .  S
C1148      H1152   1.087       .  S
C1153      C1154   1.407       .  A
C1153      C1158   1.401       .  A
C1153      H1163   1.083       .  S
C1154      C1159   1.492       .  S
C1154      C1155   1.407       .  A
C1155      C1156   1.398       .  A
C1155      H1160   1.083       .  S
C1156      C1157   1.406       .  A
C1156      H1161   1.083       .  S
C1157      C1158   1.407       .  A
C1158      H1162   1.083       .  S
C1159      C1164   1.407       .  A
C1159      C1168   1.407       .  A
C1164      C1165   1.403       .  A
C1164      H1169   1.083       .  S
C1165      C1166   1.408       .  A
C1165      H1170   1.083       .  S
C1166      C1167   1.406       .  A
C1167      C1168   1.397       .  A
C1167      H1171   1.083       .  S
C1168      H1172   1.083       .  S
C1173      C1174   1.407       .  A
C1173      C1178   1.406       .  A
C1173      H1183   1.083       .  S
C1174      C1179   1.491       .  S
C1174      C1175   1.404       .  A
C1175      C1176   1.396       .  A
C1175      H1180   1.083       .  S
C1176      C1177   1.408       .  A
C1176      H1181   1.083       .  S
C1177      C1178   1.408       .  A
C1178      H1182   1.083       .  S
C1179      C1184   1.406       .  A
C1179      C1188   1.406       .  A
C1184      C1185   1.396       .  A
C1184      H1189   1.083       .  S
C1185      C1186   1.406   1_565  A
C1185      H1190   1.083       .  S
C1186      C1187   1.410       .  A
C1187      C1188   1.406   1_545  A
C1187      H1191   1.083       .  S
C1188      H1192   1.083       .  S
C1193      C1194   1.408       .  A
C1193      C1198   1.397       .  A
C1193      H1203   1.082       .  S
C1194      C1199   1.495       .  S
C1194      C1195   1.409       .  A
C1195      C1196   1.401       .  A
C1195      H1200   1.082       .  S
C1196      C1197   1.406       .  A
C1196      H1201   1.083       .  S
C1197      C1198   1.405       .  A
C1198      H1202   1.083       .  S
C1199      C1204   1.408       .  A
C1199      C1208   1.409       .  A
C1204      C1205   1.397       .  A
C1204      H1209   1.082       .  S
C1205      C1206   1.404       .  A
C1205      H1210   1.084       .  S
C1206      C1207   1.405       .  A
C1207      C1208   1.400       .  A
C1207      H1211   1.083       .  S
C1208      H1212   1.083       .  S
C1213      C1214   1.408       .  A
C1213      C1218   1.397       .  A
C1213      H1223   1.082       .  S
C1214      C1219   1.495   1_655  S
C1214      C1215   1.409       .  A
C1215      C1216   1.401       .  A
C1215      H1220   1.082       .  S
C1216      C1217   1.406       .  A
C1216      H1221   1.083       .  S
C1217      C1218   1.405       .  A
C1218      H1222   1.083       .  S
C1219      C1224   1.408       .  A
C1219      C1228   1.410       .  A
C1224      C1225   1.398       .  A
C1224      H1229   1.082       .  S
C1225      C1226   1.405       .  A
C1225      H1230   1.083       .  S
C1226      C1227   1.404       .  A
C1227      C1228   1.400       .  A
C1227      H1231   1.083       .  S
C1228      H1232   1.082       .  S
C1233      C1234   1.408       .  A
C1233      C1238   1.396       .  A
C1233      H1243   1.079       .  S
C1234      C1239   1.496   1_565  S
C1234      C1235   1.411   1_565  A
C1235      C1236   1.402   1_545  A
C1235      H1240   1.084       .  S
C1236      C1237   1.402       .  A
C1236      H1241   1.080   1_565  S
C1237      C1238   1.402       .  A
C1238      H1242   1.086       .  S
C1239      C1244   1.407       .  A
C1239      C1248   1.410   1_545  A
C1244      C1245   1.397       .  A
C1244      H1249   1.079       .  S
C1245      C1246   1.405       .  A
C1245      H1250   1.086       .  S
C1246      C1247   1.404       .  A
C1247      C1248   1.401   1_545  A
C1247      H1251   1.081   1_545  S
C1248      H1252   1.084       .  S
C1253      C1254   1.403       .  A
C1253      C1258   1.393       .  A
C1253      H1263   1.083       .  S
C1254      C1259   1.481       .  S
C1254      C1255   1.408       .  A
C1255      C1256   1.397       .  A
C1255      H1260   1.082       .  S
C1256      C1257   1.402       .  A
C1256      H1261   1.084       .  S
C1257      C1258   1.406       .  A
C1258      H1262   1.084       .  S
C1259      C1264   1.409       .  A
C1259      C1268   1.400       .  A
C1264      C1265   1.400       .  A
C1264      H1269   1.082       .  S
C1265      C1266   1.403       .  A
C1265      H1270   1.083       .  S
C1266      C1267   1.409       .  A
C1267      C1268   1.390       .  A
C1267      H1271   1.083       .  S
C1268      H1272   1.083       .  S
C1273      C1274   1.406       .  A
C1273      C1278   1.396       .  A
C1273      H1283   1.083       .  S
C1274      C1279   1.490       .  S
C1274      C1275   1.406       .  A
C1275      C1276   1.404   1_545  A
C1275      H1280   1.083       .  S
C1276      C1277   1.409       .  A
C1276      H1281   1.083       .  S
C1277      C1278   1.406   1_565  A
C1278      H1282   1.083       .  S
C1279      C1284   1.407       .  A
C1279      C1288   1.406       .  A
C1284      C1285   1.403       .  A
C1284      H1289   1.083       .  S
C1285      C1286   1.406       .  A
C1285      H1290   1.083       .  S
C1286      C1287   1.405       .  A
C1287      C1288   1.397       .  A
C1287      H1291   1.083       .  S
C1288      H1292   1.083       .  S
C1293      C1294   1.407       .  A
C1293      C1298   1.397       .  A
C1293      H1303   1.083       .  S
C1294      C1299   1.492       .  S
C1294      C1295   1.407       .  A
C1295      C1296   1.402       .  A
C1295      H1300   1.083       .  S
C1296      C1297   1.408       .  A
C1296      H1301   1.083       .  S
C1297      C1298   1.405       .  A
C1298      H1302   1.083       .  S
C1299      C1304   1.406       .  A
C1299      C1308   1.408       .  A
C1304      C1305   1.395       .  A
C1304      H1309   1.083       .  S
C1305      C1306   1.405       .  A
C1305      H1310   1.083       .  S
C1306      C1307   1.408       .  A
C1307      C1308   1.405       .  A
C1307      H1311   1.083       .  S
C1308      H1312   1.083       .  S
