geometry optimzed in LAMMPS
_audit_creation_date              2020-12-01 
_audit_creation_method            'lammps2cif' 
_symmetry_space_group_name_H-M    'P1' 
_symmetry_Int_Tables_number       1 
_symmetry_cell_setting            triclinic 
loop_ 
_symmetry_equiv_pos_as_xyz 
  x,y,z 
_cell_length_a                    44.52353064 
_cell_length_b                    29.013548323093335 
_cell_length_c                    55.663601633778235 
_cell_angle_alpha                 89.92762681608889 
_cell_angle_beta                  89.94446970687004 
_cell_angle_gamma                 89.81756674612882 
loop_ 
_atom_site_label 
_atom_site_type_symbol 
_atom_site_fract_x 
_atom_site_fract_y 
_atom_site_fract_z 
_atom_site_charge 
O1          O  0.70512085  0.31542576  0.64481577    -0.80500
C2          C  0.64642090  0.45671163  0.59479484     0.98800
O3          O  0.63513475  0.41702141  0.59741644    -0.69700
O4          O  0.67853497  0.36168603  0.58397564    -0.73200
Al5        Al  0.65356280  0.36324073  0.61150350     1.49000
C6          C  0.70535687  0.34786163  0.58337787     0.94100
O7          O  0.73556476  0.43082733  0.62207737    -0.79500
O8          O  0.67596351  0.42560829  0.67495715    -0.73000
Al9        Al  0.71728874  0.37438426  0.63325414     1.90100
O10         O  0.70655783  0.47668622  0.64281648    -0.72100
O11         O  0.62637265  0.43271712  0.64631464    -0.71900
O12         O  0.66215980  0.47410796  0.61142111    -0.77600
O13         O  0.62479632  0.35989953  0.63678966    -0.75800
O14         O  0.67987381  0.39462729  0.62930396    -1.11900
O15         O  0.66714749  0.30326710  0.62082304    -0.71100
C16         C  0.68739591  0.28789439  0.63452734     0.99600
C17         C  0.73094552  0.46917621  0.63214716     0.96000
Al18       Al  0.66845116  0.44780544  0.64271577     1.55600
O19         O  0.72180522  0.35037116  0.60175102    -0.75800
C20         C  0.61226637  0.39499920  0.64563175     1.00100
C21         C  0.70117170  0.40852756  0.68127999     0.95000
O22         O  0.71953627  0.39312306  0.66586796    -0.81100
O23         O  0.78817896  0.15853768  0.35609717    -0.80500
C24         C  0.86425081  0.10260933  0.43197958     0.98800
O25         O  0.86264085  0.08228633  0.41178752    -0.69700
O26         O  0.80855956  0.05758613  0.39832246    -0.73200
Al27       Al  0.83840836  0.09431670  0.38322850     1.49000
C28         C  0.78061837  0.06182643  0.39576075     0.94100
O29         O  0.77698543  0.16649567  0.42317129    -0.79500
O30         O  0.83986010  0.23527799  0.38751687    -0.73000
Al31       Al  0.78475566  0.16184750  0.38957502     1.90100
O32         O  0.81598186  0.20958715  0.43082064    -0.72100
O33         O  0.88259820  0.17355691  0.39353736    -0.71900
O34         O  0.85535826  0.14366622  0.43412898    -0.77600
O35         O  0.87116781  0.12261346  0.36637887    -0.75800
O36         O  0.82332383  0.14747491  0.39410269    -1.11900
O37         O  0.81595493  0.09585243  0.35301389    -0.71100
C38         C  0.79730779  0.12445308  0.34409113     0.99600
C39         C  0.79058192  0.19422953  0.43678480     0.96000
Al40       Al  0.84654677  0.18697376  0.41002369     1.55600
O41         O  0.76936717  0.10048530  0.39072420    -0.75800
C42         C  0.88964163  0.15080080  0.37517838     1.00100
C43         C  0.81408040  0.25152292  0.38323598     0.95000
O44         O  0.79096756  0.22703458  0.38649471    -0.81100
O45         O  0.28560902  0.36740243  0.65787820    -0.80500
C46         C  0.35998976  0.42750616  0.58272423     0.98800
O47         O  0.35926648  0.44714667  0.60315660    -0.69700
O48         O  0.30582352  0.46970296  0.61778703    -0.73200
Al49       Al  0.33608411  0.43300681  0.63205771     1.49000
C50         C  0.27785255  0.46474357  0.61863338     0.94100
O51         O  0.27610746  0.36170095  0.59073317    -0.79500
O52         O  0.33900625  0.29214912  0.62642717    -0.73000
Al53       Al  0.28299916  0.36516428  0.62445151     1.90100
O54         O  0.31538030  0.31858569  0.58353483    -0.72100
O55         O  0.38144280  0.35539293  0.62063553    -0.71900
O56         O  0.35295926  0.38569976  0.58080796    -0.77600
O57         O  0.36991401  0.40543300  0.64816467    -0.75800
O58         O  0.32158501  0.38003493  0.62063029    -1.11900
O59         O  0.31398402  0.42888942  0.66246089    -0.71100
C60         C  0.29503454  0.40005663  0.67069081     0.99600
C61         C  0.29028329  0.33447397  0.57716220     0.96000
Al62       Al  0.34533823  0.34145789  0.60442563     1.55600
O63         O  0.26675095  0.42603410  0.62338012    -0.75800
C64         C  0.38886821  0.37864389  0.63867959     1.00100
C65         C  0.31310940  0.27542759  0.62967466     0.95000
O66         O  0.28991113  0.30016406  0.62695557    -0.81100
O67         O  0.20390737  0.21655400  0.36777420    -0.80500
C68         C  0.14479976  0.07942722  0.42176212     0.98800
O69         O  0.13452329  0.11963053  0.41856948    -0.69700
O70         O  0.18037242  0.17096294  0.43013960    -0.73200
Al71       Al  0.15402191  0.17134646  0.40363327     1.49000
C72         C  0.20740637  0.18362738  0.42980808     0.94100
O73         O  0.23478322  0.10147491  0.39050017    -0.79500
O74         O  0.17262767  0.10356805  0.34054931    -0.73000
Al75       Al  0.21618424  0.15742314  0.37952288     1.90100
O76         O  0.20375068  0.05388448  0.37311678    -0.72100
O77         O  0.12467582  0.10211764  0.37055263    -0.71900
O78         O  0.16039964  0.06059219  0.40541405    -0.77600
O79         O  0.12440572  0.17577451  0.37899701    -0.75800
O80         O  0.17893420  0.13817103  0.38531503    -1.11900
O81         O  0.16858031  0.23028273  0.39406583    -0.71100
C82         C  0.18805383  0.24480172  0.37949050     0.99600
C83         C  0.22895143  0.06215816  0.38216267     0.96000
Al84       Al  0.16619850  0.08456012  0.37343952     1.55600
O85         O  0.22267289  0.18191373  0.41071373    -0.75800
C86         C  0.11125462  0.14056574  0.37094877     1.00100
C87         C  0.19742312  0.11967820  0.33286149     0.95000
O88         O  0.21628482  0.13703373  0.34718910    -0.81100
O89         O  0.20706478  0.80824449  0.63632126    -0.80500
C90         C  0.14233375  0.94735575  0.58955759     0.98800
O91         O  0.13301847  0.90639028  0.59142211    -0.69700
O92         O  0.17816970  0.85763681  0.57607966    -0.73200
Al93       Al  0.15400519  0.85355952  0.60381049     1.49000
C94         C  0.20513639  0.84511479  0.57436793     0.94100
O95         O  0.23336075  0.92490780  0.61354072    -0.79500
O96         O  0.17700587  0.91315989  0.66846262    -0.73000
Al97       Al  0.21761281  0.86747074  0.62480683     1.90100
O98         O  0.20412133  0.96842518  0.63565823    -0.72100
O99         O  0.12596704  0.91686468  0.64156867    -0.71900
O100        O  0.15784393  0.96468578  0.60632912    -0.77600
O101        O  0.12613998  0.84541234  0.62914911    -0.75800
O102        O  0.17956661  0.88544919  0.62199097    -1.11900
O103        O  0.17011574  0.79403080  0.61158321    -0.71100
C104        C  0.19040117  0.77982536  0.62564459     0.99600
C105        C  0.22788913  0.96274533  0.62378857     0.96000
Al106      Al  0.16699034  0.93652316  0.63678941     1.55600
O107        O  0.22185979  0.84447372  0.59267310    -0.75800
C108        C  0.11295409  0.87840239  0.63945241     1.00100
C109        C  0.20320939  0.89883615  0.67395587     0.95000
O110        O  0.22116866  0.88572431  0.65766433    -0.81100
O111        O  0.29033597  0.65791795  0.34417228    -0.80500
C112        C  0.35381516  0.60102846  0.42628890     0.98800
O113        O  0.35680398  0.58136564  0.40602654    -0.69700
O114        O  0.30409101  0.55885694  0.38982753    -0.73200
Al115      Al  0.33547728  0.59282982  0.37593953     1.49000
C116        C  0.27655321  0.56268285  0.38540419     0.94100
O117        O  0.27067511  0.67011326  0.41013665    -0.79500
O118        O  0.33999341  0.73314463  0.37924890    -0.73000
Al119      Al  0.28270285  0.66275327  0.37727864     1.90100
O120        O  0.30971237  0.71165760  0.42004653    -0.72100
O121        O  0.38020222  0.66874282  0.38939034    -0.71900
O122        O  0.34538169  0.64241262  0.42751430    -0.77600
O123        O  0.37008174  0.61922167  0.36094074    -0.75800
O124        O  0.32018117  0.64698901  0.38501026    -1.11900
O125        O  0.31564238  0.59268429  0.34450849    -0.71100
C126        C  0.29932166  0.62209826  0.33361702     0.99600
C127        C  0.28296613  0.69943665  0.42367893     0.96000
Al128      Al  0.34215474  0.68549789  0.40251563     1.55600
O129        O  0.26599016  0.60089783  0.37830912    -0.75800
C130        C  0.38838359  0.64553432  0.37141796     1.00100
C131        C  0.31516943  0.75117735  0.37343309     0.95000
O132        O  0.29115757  0.72775396  0.37400502    -0.81100
O133        O  0.78449095  0.87808963  0.65739927    -0.80500
C134        C  0.86780338  0.93805091  0.58854437     0.98800
O135        O  0.86345116  0.95719082  0.60880322    -0.69700
O136        O  0.81001100  0.98043973  0.62309603    -0.73200
Al137      Al  0.83927953  0.94100936  0.63650749     1.49000
C138        C  0.78217881  0.97630042  0.62061992     0.94100
O139        O  0.78291878  0.87073525  0.58957179    -0.79500
O140        O  0.84127757  0.79998507  0.62878155    -0.73000
Al141      Al  0.78623597  0.87533497  0.62377468     1.90100
O142        O  0.82321698  0.82851019  0.58497316    -0.72100
O143        O  0.88507285  0.86139364  0.62657211    -0.71900
O144        O  0.86208646  0.89586587  0.58537864    -0.77600
O145        O  0.87223420  0.91292792  0.65296804    -0.75800
O146        O  0.82543686  0.88916351  0.62295624    -1.11900
O147        O  0.81618198  0.93357025  0.66597891    -0.71100
C148        C  0.79534785  0.90619755  0.67227445     0.99600
C149        C  0.79783930  0.84141056  0.57780711     0.96000
Al150      Al  0.85072766  0.85028164  0.60791097     1.55600
O151        O  0.77057590  0.93684982  0.62131153    -0.75800
C152        C  0.89111694  0.88478063  0.64478374     1.00100
C153        C  0.81491791  0.78422621  0.63098200     0.95000
O154        O  0.79240926  0.81000789  0.62714519    -0.81100
O155        O  0.70788491  0.71739241  0.37215599    -0.80500
C156        C  0.64631132  0.58371558  0.42549875     0.98800
O157        O  0.63696484  0.62458882  0.42273457    -0.69700
O158        O  0.68360975  0.67312804  0.43403605    -0.73200
Al159      Al  0.65708718  0.67571018  0.40792104     1.49000
C160        C  0.71108137  0.68291854  0.43417372     0.94100
O161        O  0.73546075  0.60075286  0.39405123    -0.79500
O162        O  0.67285383  0.60951968  0.34419707    -0.73000
Al163      Al  0.71861171  0.65804814  0.38351377     1.90100
O164        O  0.70344123  0.55647519  0.37550497    -0.72100
O165        O  0.62516432  0.60927111  0.37444470    -0.71900
O166        O  0.66069000  0.56425174  0.40861677    -0.77600
O167        O  0.62701419  0.68229982  0.38403005    -0.75800
O168        O  0.68081823  0.64144654  0.38918557    -1.11900
O169        O  0.67277343  0.73438351  0.39813729    -0.71100
C170        C  0.69243965  0.74701298  0.38319214     0.99600
C171        C  0.72891804  0.56271448  0.38458311     0.96000
Al172      Al  0.66648975  0.58923075  0.37678818     1.55600
O173        O  0.72635813  0.68128957  0.41506319    -0.75800
C174        C  0.61270836  0.64843222  0.37574023     1.00100
C175        C  0.69810840  0.62377229  0.33648621     0.95000
O176        O  0.71786364  0.63866269  0.35085260    -0.81100
O177        O  0.80163749  0.30191330  0.87630057    -0.80500
C178        C  0.86861190  0.43359705  0.92709369     0.98800
O179        O  0.87699241  0.39254437  0.92368322    -0.69700
O180        O  0.83164143  0.34306963  0.93816468    -0.73200
Al181      Al  0.85522522  0.34246514  0.90989358     1.49000
C182        C  0.80504511  0.32871191  0.93908227     0.94100
O183        O  0.77538796  0.41606575  0.90349460    -0.79500
O184        O  0.83077250  0.41148035  0.84791366    -0.73000
Al185      Al  0.79127647  0.35997838  0.89020789     1.90100
O186        O  0.80534528  0.46265638  0.88383174    -0.72100
O187        O  0.88275792  0.40985071  0.87381346    -0.71900
O188        O  0.85275169  0.45369789  0.91134379    -0.77600
O189        O  0.88205904  0.33707626  0.88382099    -0.75800
O190        O  0.82943233  0.37729924  0.89332939    -1.11900
O191        O  0.83886937  0.28484372  0.90032841    -0.71100
C192        C  0.81863144  0.27229915  0.88596193     0.99600
C193        C  0.78152191  0.45573697  0.89548703     0.96000
Al194      Al  0.84206722  0.43001794  0.88023199     1.55600
O195        O  0.78790598  0.33208270  0.92112756    -0.75800
C196        C  0.89545813  0.37081336  0.87455259     1.00100
C197        C  0.80456685  0.39737697  0.84252194     0.95000
O198        O  0.78706461  0.38286766  0.85866375    -0.81100
O199        O  0.71548134  0.15227029  0.16520511    -0.80500
C200        C  0.64586352  0.08043972  0.08897590     0.98800
O201        O  0.64658893  0.06359064  0.11003673    -0.69700
O202        O  0.69969245  0.04355584  0.12669507    -0.73200
Al203      Al  0.66868615  0.08162102  0.13874942     1.49000
C204        C  0.72738579  0.04819615  0.13010822     0.94100
O205        O  0.73306754  0.14643947  0.09878562    -0.79500
O206        O  0.66694604  0.22149730  0.12634769    -0.73000
Al207      Al  0.72221794  0.14849218  0.13192781     1.90100
O208        O  0.69408690  0.18610158  0.08631989    -0.72100
O209        O  0.62467955  0.15819946  0.12259242    -0.71900
O210        O  0.65477860  0.12083192  0.08507173    -0.77600
O211        O  0.63449737  0.11195927  0.15247638    -0.75800
O212        O  0.68413100  0.13278081  0.12598497    -1.11900
O213        O  0.68880002  0.08929143  0.16974235    -0.71100
C214        C  0.70544290  0.12066125  0.17852336     0.99600
C215        C  0.72023932  0.17050675  0.08286303     0.96000
Al216      Al  0.66194245  0.16850345  0.10686072     1.55600
O217        O  0.73812525  0.08713228  0.13509366    -0.75800
C218        C  0.61632042  0.13778647  0.14140869     1.00100
C219        C  0.69240830  0.23893849  0.13014231     0.95000
O220        O  0.71563543  0.21377936  0.13048317    -0.81100
O221        O  0.21721069  0.35468857  0.84837433    -0.80500
C222        C  0.14517472  0.40254008  0.92748264     0.98800
O223        O  0.14427708  0.42368878  0.90746414    -0.69700
O224        O  0.19711724  0.45049309  0.89427663    -0.73200
Al225      Al  0.16815227  0.41546209  0.87835528     1.49000
C226        C  0.22486268  0.44956831  0.89062633     0.94100
O227        O  0.23173593  0.34282047  0.91470871    -0.79500
O228        O  0.16792547  0.27555535  0.87904994    -0.73000
Al229      Al  0.22257213  0.34969077  0.88155256     1.90100
O230        O  0.19408387  0.29606578  0.92211955    -0.72100
O231        O  0.12450438  0.33581796  0.88796555    -0.71900
O232        O  0.15457201  0.36158295  0.92851942    -0.77600
O233        O  0.13624922  0.38814509  0.86129049    -0.75800
O234        O  0.18411739  0.36208270  0.88749980    -1.11900
O235        O  0.18973152  0.41774232  0.84767652    -0.71100
C236        C  0.20659264  0.38864157  0.83708025     0.99600
C237        C  0.21989322  0.31125697  0.92709305     0.96000
Al238      Al  0.16192365  0.32076898  0.90304953     1.55600
O239        O  0.23713316  0.41264149  0.88352064    -0.75800
C240        C  0.11752932  0.36081851  0.87028105     1.00100
C241        C  0.19377594  0.25892504  0.87546503     0.95000
O242        O  0.21687976  0.28403501  0.87775884    -0.81100
O243        O  0.29554585  0.19370572  0.13729854    -0.80500
C244        C  0.36757801  0.06566823  0.08892691     0.98800
O245        O  0.37558455  0.10694091  0.09255566    -0.69700
O246        O  0.33136740  0.15818228  0.07797186    -0.73200
Al247      Al  0.35335440  0.15683221  0.10699294     1.49000
C248        C  0.30374024  0.16504952  0.07497193     0.94100
O249        O  0.27451024  0.07861404  0.10994495    -0.79500
O250        O  0.32626541  0.08505490  0.16740444    -0.73000
Al251      Al  0.28817679  0.13528816  0.12353181     1.90100
O252        O  0.30393296  0.03364989  0.13089072    -0.72100
O253        O  0.37956614  0.08742074  0.14277485    -0.71900
O254        O  0.35185920  0.04498537  0.10451906    -0.77600
O255        O  0.37993072  0.16059173  0.13389947    -0.75800
O256        O  0.32699274  0.12030503  0.12212192    -1.11900
O257        O  0.33563352  0.21422110  0.11732673    -0.71100
C258        C  0.31299840  0.22478263  0.12993303     0.99600
C259        C  0.28076631  0.03946441  0.11839623     0.96000
Al260      Al  0.33962029  0.06749597  0.13535042     1.55600
O261        O  0.28572527  0.16071827  0.09225530    -0.75800
C262        C  0.39279360  0.12577430  0.14283486     1.00100
C263        C  0.29910736  0.09671155  0.17163460     0.95000
O264        O  0.28286408  0.11289902  0.15505874    -0.81100
O265        O  0.29752900  0.79585764  0.87485621    -0.80500
C266        C  0.36558384  0.92921691  0.92203397     0.98800
O267        O  0.37541386  0.88886340  0.91822274    -0.69700
O268        O  0.33226058  0.83732684  0.93398394    -0.73200
Al269      Al  0.35392135  0.83725067  0.90499004     1.49000
C270        C  0.30519054  0.82684354  0.93711069     0.94100
O271        O  0.27364998  0.91089635  0.90114695    -0.79500
O272        O  0.32639685  0.90427306  0.84381024    -0.73000
Al273      Al  0.28855472  0.85438012  0.88800624     1.90100
O274        O  0.30121523  0.95590460  0.87873303    -0.72100
O275        O  0.37921971  0.90577061  0.86913106    -0.71900
O276        O  0.34892710  0.94848615  0.90650774    -0.77600
O277        O  0.37985071  0.83255129  0.87788498    -0.75800
O278        O  0.32682161  0.87144792  0.88934770    -1.11900
O279        O  0.33724605  0.77885473  0.89617965    -0.71100
C280        C  0.31516266  0.76624338  0.88359625     0.99600
C281        C  0.27798489  0.94912431  0.89103939     0.96000
Al282      Al  0.33828864  0.92419282  0.87564985     1.55600
O283        O  0.28682576  0.82936469  0.91986352    -0.75800
C284        C  0.39278106  0.86740716  0.86923735     1.00100
C285        C  0.29983909  0.89054985  0.83906526     0.95000
O286        O  0.28300338  0.87538186  0.85566535    -0.81100
O287        O  0.20783059  0.64020964  0.16281107    -0.80500
C288        C  0.14473367  0.58338977  0.08015715     0.98800
O289        O  0.14188629  0.56486406  0.10073019    -0.69700
O290        O  0.19366570  0.53892490  0.11853674    -0.73200
Al291      Al  0.16262357  0.57656736  0.13097596     1.49000
C292        C  0.22115516  0.54138029  0.12357063     0.94100
O293        O  0.23112218  0.64617567  0.09735263    -0.79500
O294        O  0.16300935  0.71744970  0.12501257    -0.73000
Al295      Al  0.21734373  0.64195803  0.12985604     1.90100
O296        O  0.19361704  0.68951369  0.08521965    -0.72100
O297        O  0.12064188  0.65598367  0.11579806    -0.71900
O298        O  0.15473376  0.62381386  0.07834839    -0.77600
O299        O  0.12885390  0.60719428  0.14488205    -0.75800
O300        O  0.17981300  0.62876609  0.12124925    -1.11900
O301        O  0.18070327  0.57700952  0.16287020    -0.71100
C302        C  0.19636096  0.60674148  0.17387686     0.99600
C303        C  0.22041023  0.67579097  0.08305203     0.96000
Al304      Al  0.15956415  0.66809657  0.10267454     1.55600
O305        O  0.23213392  0.57924436  0.13045820    -0.75800
C306        C  0.11158706  0.63513515  0.13431981     1.00100
C307        C  0.18822850  0.73321831  0.13129150     0.95000
O308        O  0.21114856  0.70729795  0.13158077    -0.81100
O309        O  0.71525867  0.85989614  0.85134642    -0.80500
C310        C  0.64815005  0.91952188  0.93174723     0.98800
O311        O  0.64690368  0.93792510  0.91101894    -0.69700
O312        O  0.69850473  0.96272501  0.89305197    -0.73200
Al313      Al  0.66789631  0.92434644  0.88103712     1.49000
C314        C  0.72626034  0.95962139  0.88922851     0.94100
O315        O  0.73523661  0.85600960  0.91709173    -0.79500
O316        O  0.66844237  0.78384012  0.88872470    -0.73000
Al317      Al  0.72289520  0.85896686  0.88438970     1.90100
O318        O  0.69763792  0.81282489  0.92873789    -0.72100
O319        O  0.62579057  0.84588457  0.89697438    -0.71900
O320        O  0.65813035  0.87913165  0.93442295    -0.77600
O321        O  0.63395031  0.89338843  0.86737379    -0.75800
O322        O  0.68493629  0.87263290  0.89188934    -1.11900
O323        O  0.68689688  0.92179074  0.84928360    -0.71100
C324        C  0.70424709  0.89257811  0.83932744     0.99600
C325        C  0.72433727  0.82637209  0.93115043     0.96000
Al326      Al  0.66418009  0.83401822  0.91057519     1.55600
O327        O  0.73764475  0.92122517  0.88363925    -0.75800
C328        C  0.61658013  0.86636082  0.87843645     1.00100
C329        C  0.69388021  0.76759879  0.88310820     0.95000
O330        O  0.71676909  0.79343225  0.88302033    -0.81100
O331        O  0.79545840  0.70319643  0.13769113    -0.80500
C332        C  0.86591377  0.56841126  0.09359082     0.98800
O333        O  0.87554987  0.60873452  0.09753134    -0.69700
O334        O  0.83406775  0.66169660  0.08007243    -0.73200
Al335      Al  0.85368874  0.66089562  0.10993290     1.49000
C336        C  0.80719843  0.67216140  0.07590515     0.94100
O337        O  0.77329030  0.58841726  0.11002514    -0.79500
O338        O  0.82171991  0.59536495  0.16987666    -0.73000
Al339      Al  0.78723695  0.64485915  0.12394877     1.90100
O340        O  0.79876772  0.54349804  0.13413083    -0.72100
O341        O  0.87644318  0.59196898  0.14692056    -0.71900
O342        O  0.84840107  0.54951276  0.10858397    -0.77600
O343        O  0.87758842  0.66500007  0.13800306    -0.75800
O344        O  0.82547248  0.62722598  0.12434181    -1.11900
O345        O  0.83699958  0.71943925  0.11850126    -0.71100
C346        C  0.81449537  0.73228922  0.13060802     0.99600
C347        C  0.77659177  0.55033295  0.12060905     0.96000
Al348      Al  0.83578398  0.57449111  0.13874654     1.55600
O349        O  0.78773965  0.67002560  0.09234037    -0.75800
C350        C  0.88997728  0.63020511  0.14720397     1.00100
C351        C  0.79461650  0.60849496  0.17312778     0.95000
O352        O  0.77932554  0.62370130  0.15565930    -0.81100
C353        C  0.75583413  0.73177237  0.96944825     0.13900
C354        C  0.77195565  0.75656660  0.98670191     0.00900
C355        C  0.77553740  0.80449147  0.98404230     0.15900
C356        C  0.76127655  0.82773197  0.96512256     0.25300
C357        C  0.74307482  0.80313935  0.94910303    -0.41100
C358        C  0.74135240  0.75487365  0.95088404     0.32300
C359        C  0.78163084  0.73296915  0.00879985     0.01000
F360        F  0.79118846  0.82897968  0.00057317    -0.13400
F361        F  0.72507007  0.73009759  0.93484447    -0.13900
C362        C  0.81204426  0.73020920  0.01506312     0.15900
C363        C  0.82060257  0.70863809  0.03645995     0.25300
C364        C  0.79870132  0.68977576  0.05196070    -0.41000
C365        C  0.76829197  0.69165365  0.04519313     0.32200
C366        C  0.75987836  0.71314548  0.02384830     0.14000
F367        F  0.83338631  0.74858112  0.00051165    -0.13400
F368        F  0.74654965  0.67319798  0.05933713    -0.13900
F369        F  0.85018719  0.70788877  0.04236597    -0.16200
F370        F  0.73026598  0.71579316  0.01814380    -0.14700
F371        F  0.75312089  0.68526644  0.97120867    -0.14700
F372        F  0.76358375  0.87426091  0.96340188    -0.16100
C373        C  0.03867926  0.62197447  0.16981105     0.13900
C374        C  0.01815324  0.64566370  0.15507658     0.00900
C375        C  0.02905013  0.66987915  0.13503223     0.15900
C376        C  0.05954202  0.66825763  0.12896854     0.25300
C377        C  0.08001911  0.64203608  0.14278806    -0.41100
C378        C  0.06930590  0.62027118  0.16381208     0.32300
C379        C  0.98515689  0.64106649  0.15867633     0.01000
F380        F  0.00979525  0.69291379  0.12036305    -0.13400
F381        F  0.08824469  0.59630243  0.17832148    -0.13900
C382        C  0.96670757  0.68021287  0.16108821     0.15900
C383        C  0.93536989  0.67635257  0.15942459     0.25300
C384        C  0.92183504  0.63317028  0.15528831    -0.41000
C385        C  0.94033663  0.59359580  0.15484578     0.32200
C386        C  0.97161856  0.59759454  0.15645117     0.14000
F387        F  0.97915013  0.72250776  0.16397563    -0.13400
F388        F  0.92851561  0.55127523  0.15068561    -0.13900
F389        F  0.91839708  0.71523892  0.16071318    -0.16200
F390        F  0.98883719  0.55922902  0.15374482    -0.14700
F391        F  0.02890711  0.59956394  0.18974899    -0.14700
F392        F  0.06858819  0.69084983  0.10885860    -0.16100
C393        C  0.53476935  0.82841448  0.87917780     0.13900
C394        C  0.52204893  0.85566609  0.86092169     0.00900
C395        C  0.54119716  0.88311628  0.84675513     0.15900
C396        C  0.57211830  0.88533994  0.85165817     0.25300
C397        C  0.58466718  0.85981407  0.87078319    -0.41100
C398        C  0.56559393  0.83012976  0.88394050     0.32300
C399        C  0.48868164  0.85886864  0.85855991     0.01000
F400        F  0.52980141  0.90868529  0.82844948    -0.13400
F401        F  0.57638803  0.80381353  0.90220989    -0.13900
C402        C  0.47429056  0.90182918  0.86093762     0.15900
C403        C  0.44295422  0.90481739  0.86245955     0.25300
C404        C  0.42508345  0.86472198  0.86209578    -0.41000
C405        C  0.43941939  0.82187436  0.85839076     0.32200
C406        C  0.47084599  0.81904871  0.85650774     0.14000
F407        F  0.49069113  0.94085311  0.86365436    -0.13400
F408        F  0.42314605  0.78242538  0.85739146    -0.13900
F409        F  0.43041653  0.94692335  0.86619903    -0.16200
F410        F  0.48393978  0.77713624  0.85342527    -0.14700
F411        F  0.51706034  0.80202671  0.89350092    -0.14700
F412        F  0.58947573  0.91371598  0.83814170    -0.16100
C413        C  0.25706866  0.77254375  0.98561870     0.13900
C414        C  0.27821621  0.76424888  0.00376263     0.00900
C415        C  0.30789693  0.77891887  0.00070481     0.15900
C416        C  0.31651634  0.80101667  0.97943199     0.25300
C417        C  0.29545815  0.80848092  0.96077471    -0.41100
C418        C  0.26551172  0.79437091  0.96433098     0.32300
C419        C  0.26829138  0.74236156  0.02626793     0.01000
F420        F  0.32845205  0.77203411  0.01836302    -0.13400
F421        F  0.24432807  0.80092256  0.94712441    -0.13900
C422        C  0.27304741  0.69507302  0.03042748     0.15900
C423        C  0.25864715  0.67302883  0.04970650     0.25300
C424        C  0.23920571  0.69820498  0.06469013    -0.41000
C425        C  0.23614622  0.74608368  0.06126924     0.32200
C426        C  0.25059594  0.76791448  0.04224124     0.14000
F427        F  0.29025575  0.66997707  0.01508753    -0.13400
F428        F  0.21859925  0.77169974  0.07615386    -0.13900
F429        F  0.26213360  0.62690135  0.05277309    -0.16200
F430        F  0.24634318  0.81381521  0.03875408    -0.14700
F431        F  0.22812911  0.75894514  0.98850140    -0.14700
F432        F  0.34558742  0.81434911  0.97707437    -0.16100
C433        C  0.39315574  0.94836414  0.98622318     0.13900
C434        C  0.37710326  0.98804396  0.99300252     0.00900
C435        C  0.35914606  0.01033209  0.97571868     0.15900
C436        C  0.35663723  0.99273149  0.95233405     0.25300
C437        C  0.37203976  0.95215248  0.94557435    -0.41100
C438        C  0.39075681  0.93065432  0.96283629     0.32300
C439        C  0.37830436  0.00575176  0.01817253     0.01000
F440        F  0.34286243  0.04820721  0.98181682    -0.13400
F441        F  0.40629084  0.89168825  0.95739087    -0.13900
C442        C  0.38788837  0.05094323  0.02280829     0.15900
C443        C  0.38631803  0.06936381  0.04605979     0.25300
C444        C  0.37480351  0.04308812  0.06539066    -0.41000
C445        C  0.36671385  0.99687926  0.06086321     0.32200
C446        C  0.36842745  0.97850883  0.03754747     0.14000
F447        F  0.39829261  0.07772092  0.00461029    -0.13400
F448        F  0.35621423  0.96966894  0.07881959    -0.13900
F449        F  0.39492415  0.11377641  0.04927065    -0.16200
F450        F  0.35896730  0.93469129  0.03370107    -0.14700
F451        F  0.41109596  0.92648943  0.00235376    -0.14700
F452        F  0.33799212  0.01450865  0.93669433    -0.16100
C453        C  0.18539366  0.86130216  0.12004491     0.13900
C454        C  0.21271226  0.87477226  0.13048669     0.00900
C455        C  0.22777507  0.84377555  0.14578093     0.15900
C456        C  0.21795172  0.79837100  0.14803999     0.25300
C457        C  0.19249988  0.78321445  0.13538712    -0.41100
C458        C  0.17518860  0.81586001  0.12263493     0.32300
C459        C  0.22776227  0.91830398  0.12335226     0.01000
F460        F  0.25327832  0.85670113  0.15729678    -0.13400
F461        F  0.15005754  0.80286866  0.11066556    -0.13900
C462        C  0.21408197  0.96167190  0.12662779     0.15900
C463        C  0.23047284  0.00221277  0.12246820     0.25300
C464        C  0.26075677  0.99964709  0.11538752    -0.41000
C465        C  0.27361586  0.95641819  0.11059115     0.32200
C466        C  0.25717210  0.91624160  0.11415187     0.14000
F467        F  0.18570912  0.96478880  0.13542452    -0.13400
F468        F  0.30280394  0.95299964  0.10373973    -0.13900
F469        F  0.21769092  0.04364226  0.12748582    -0.16200
F470        F  0.27049891  0.87498207  0.10958381    -0.14700
F471        F  0.16997530  0.89080794  0.10564309    -0.14700
F472        F  0.23457569  0.76840584  0.16131829    -0.16100
C473        C  0.28167512  0.45264209  0.13860994     0.13900
C474        C  0.26984447  0.41270539  0.12796813     0.00900
C475        C  0.24391652  0.41661357  0.11370826     0.15900
C476        C  0.22908965  0.45890066  0.11121142     0.25300
C477        C  0.23982726  0.49861276  0.12294880    -0.41100
C478        C  0.26686988  0.49523905  0.13609719     0.32300
C479        C  0.28332647  0.36637530  0.13231544     0.01000
F480        F  0.23258588  0.37900856  0.10243082    -0.13400
F481        F  0.27824101  0.53254734  0.14759360    -0.13900
C482        C  0.26559709  0.33117219  0.14221588     0.15900
C483        C  0.27615204  0.28576736  0.14315706     0.25300
C484        C  0.30485994  0.27419711  0.13410217    -0.41000
C485        C  0.32353458  0.31029947  0.12595037     0.32200
C486        C  0.31282975  0.35591863  0.12508542     0.14000
F487        F  0.23740786  0.34054730  0.15022345    -0.13400
F488        F  0.35168996  0.30134201  0.11779338    -0.13900
F489        F  0.25731412  0.25285099  0.15169377    -0.16200
F490        F  0.33069002  0.38938104  0.11583598    -0.14700
F491        F  0.30672003  0.44999771  0.15243660    -0.14700
F492        F  0.20379064  0.46058913  0.09762306    -0.16100
C493        C  0.22439040  0.03492809  0.86543393     0.13900
C494        C  0.22331179  0.06792296  0.88375769     0.00900
C495        C  0.23624409  0.05793656  0.90624361     0.15900
C496        C  0.25213840  0.01666074  0.90969894     0.25300
C497        C  0.25488550  0.98514311  0.89074369    -0.41100
C498        C  0.24007994  0.99378805  0.86891073     0.32300
C499        C  0.21295881  0.11505829  0.87826336     0.01000
F500        F  0.23549924  0.08972655  0.92411948    -0.13400
F501        F  0.24275702  0.96376443  0.85032406    -0.13900
C502        C  0.18564848  0.13170096  0.88729937     0.15900
C503        C  0.17783875  0.17808354  0.88423899     0.25300
C504        C  0.19765777  0.20863360  0.87249290    -0.41000
C505        C  0.22414345  0.19098176  0.86217619     0.32200
C506        C  0.23163589  0.14449377  0.86495966     0.14000
F507        F  0.16717276  0.10345955  0.89991799    -0.13400
F508        F  0.24348054  0.21917893  0.85037324    -0.13900
F509        F  0.15209975  0.19372005  0.89453527    -0.16200
F510        F  0.25802847  0.12867818  0.85585204    -0.14700
F511        F  0.21190601  0.04394583  0.84367732    -0.14700
F512        F  0.26683819  0.00924518  0.93071406    -0.16100
C513        C  0.31036242  0.63880618  0.89848104     0.13900
C514        C  0.28534651  0.62539920  0.88490120     0.00900
C515        C  0.27266887  0.65692428  0.86857513     0.15900
C516        C  0.28374425  0.70187588  0.86679506     0.25300
C517        C  0.30786234  0.71636347  0.88135357    -0.41100
C518        C  0.32163093  0.68368923  0.89667687     0.32300
C519        C  0.27114775  0.57975043  0.88877360     0.01000
F520        F  0.24886810  0.64450942  0.85480305    -0.13400
F521        F  0.34479691  0.69576703  0.91118054    -0.13900
C522        C  0.24097818  0.57741927  0.89593903     0.15900
C523        C  0.22655785  0.53497142  0.89799671     0.25300
C524        C  0.24196855  0.49345369  0.89275197    -0.41000
C525        C  0.27276766  0.49577128  0.88695434     0.32200
C526        C  0.28719674  0.53856919  0.88500488     0.14000
F527        F  0.22522165  0.61656031  0.90065332    -0.13400
F528        F  0.28875401  0.45685791  0.88236007    -0.13900
F529        F  0.19707155  0.53505182  0.90430397    -0.16200
F530        F  0.31653408  0.53987861  0.87840303    -0.14700
F531        F  0.32272074  0.60931251  0.91467109    -0.14700
F532        F  0.26993141  0.73164643  0.85150230    -0.16100
C533        C  0.11495353  0.49191270  0.97158597     0.13900
C534        C  0.12723183  0.47609672  0.99340285     0.00900
C535        C  0.14271374  0.43391429  0.99370726     0.15900
C536        C  0.14732057  0.40917680  0.97247411     0.25300
C537        C  0.13655123  0.42612874  0.95026164    -0.41100
C538        C  0.11951960  0.46715515  0.95020610     0.32300
C539        C  0.12773905  0.50596056  0.01510926     0.01000
F540        F  0.15526128  0.41814043  0.01438375    -0.13400
F541        F  0.10773054  0.48379260  0.92943726    -0.13900
C542        C  0.11559529  0.49107844  0.03713686     0.15900
C543        C  0.12023066  0.51666448  0.05824801     0.25300
C544        C  0.13723091  0.55762372  0.05772339    -0.41000
C545        C  0.14842844  0.57303667  0.03534146     0.32200
C546        C  0.14370181  0.54753523  0.01439701     0.14000
F547        F  0.09964328  0.45132730  0.03824125    -0.13400
F548        F  0.16537091  0.61175760  0.03372030    -0.13900
F549        F  0.10833776  0.50102618  0.07917748    -0.16200
F550        F  0.15634278  0.56217557  0.99353277    -0.14700
F551        F  0.09920972  0.53203625  0.97090820    -0.14700
F552        F  0.16402460  0.36997736  0.97360934    -0.16100
C553        C  0.25393050  0.22031659  0.02809478     0.13900
C554        C  0.27259151  0.21982466  0.00781526     0.00900
C555        C  0.30057633  0.19756017  0.00892803     0.15900
C556        C  0.31046375  0.17812795  0.03055939     0.25300
C557        C  0.29234024  0.18061417  0.05133974    -0.41100
C558        C  0.26362912  0.20100479  0.04964665     0.32300
C559        C  0.26277932  0.24410242  0.98592101     0.01000
F560        F  0.31871529  0.19606933  0.98931893    -0.13400
F561        F  0.24522639  0.20408512  0.06905272    -0.13900
C562        C  0.25745701  0.29190982  0.98668835     0.15900
C563        C  0.24457820  0.31446106  0.96704222     0.25300
C564        C  0.23664221  0.28932207  0.94658890    -0.41000
C565        C  0.24287671  0.24183471  0.94544391     0.32200
C566        C  0.25613534  0.21936430  0.96496050     0.14000
F567        F  0.26392897  0.31636956  0.00679820    -0.13400
F568        F  0.23561765  0.21717827  0.92555748    -0.13900
F569        F  0.23829430  0.36019134  0.96847207    -0.16200
F570        F  0.26112469  0.17320752  0.96386540    -0.14700
F571        F  0.22632869  0.24029222  0.02707789    -0.14700
F572        F  0.33788994  0.15757504  0.03119194    -0.16100
C573        C  0.68658753  0.36548236  0.11450087     0.13900
C574        C  0.71119266  0.38336568  0.12714715     0.00900
C575        C  0.72736107  0.35441165  0.14280307     0.15900
C576        C  0.71989295  0.30793099  0.14502759     0.25300
C577        C  0.69603310  0.28942533  0.13169588    -0.41100
C578        C  0.67892585  0.31886345  0.11684771     0.32300
C579        C  0.72135887  0.43143276  0.12354467     0.01000
F580        F  0.75146741  0.37067738  0.15505058    -0.13400
F581        F  0.65614440  0.30190860  0.10331696    -0.13900
C582        C  0.72381734  0.46072312  0.14346905     0.15900
C583        C  0.73991680  0.50167796  0.14168834     0.25300
C584        C  0.75346270  0.51444303  0.11988309    -0.41000
C585        C  0.74884167  0.48743355  0.09934667     0.32200
C586        C  0.73283131  0.44593773  0.10116631     0.14000
F587        F  0.71231303  0.44806565  0.16509084    -0.13400
F588        F  0.76198534  0.49909054  0.07818909    -0.13900
F589        F  0.74404040  0.52751147  0.16173760    -0.16200
F590        F  0.73076065  0.41814887  0.08163825    -0.14700
F591        F  0.67047850  0.39288993  0.09946545    -0.14700
F592        F  0.73667073  0.28060153  0.15964778    -0.16100
C593        C  0.81473421  0.86170806  0.12086561     0.13900
C594        C  0.79054651  0.87554105  0.13528495     0.00900
C595        C  0.77669559  0.84332672  0.15044745     0.15900
C596        C  0.78577194  0.79709922  0.15019391     0.25300
C597        C  0.80894575  0.78228090  0.13467121    -0.41100
C598        C  0.82404017  0.81559306  0.12062842     0.32300
C599        C  0.77739407  0.92201148  0.13252129     0.01000
F600        F  0.75320294  0.85622560  0.16451604    -0.13400
F601        F  0.84654066  0.80328163  0.10543357    -0.13900
C602        C  0.75725998  0.93053552  0.11363228     0.15900
C603        C  0.74193708  0.97255811  0.11222817     0.25300
C604        C  0.74684247  0.00696002  0.12952066    -0.41000
C605        C  0.76818971  0.99928098  0.14775572     0.32200
C606        C  0.78317174  0.95681794  0.14936320     0.14000
F607        F  0.75159940  0.89735017  0.09707762    -0.13400
F608        F  0.77309759  0.03169617  0.16487447    -0.13900
F609        F  0.72193941  0.97944450  0.09416902    -0.16200
F610        F  0.80258497  0.94908235  0.16773330    -0.14700
F611        F  0.82842508  0.89254843  0.10615435    -0.14700
F612        F  0.77095259  0.76662655  0.16441114    -0.16100
C613        C  0.64494967  0.01107791  0.98019451     0.13900
C614        C  0.62918086  0.98820964  0.99864283     0.00900
C615        C  0.61680703  0.94465452  0.99380455     0.15900
C616        C  0.62174864  0.92321584  0.97155076     0.25300
C617        C  0.63862611  0.94528412  0.95350496    -0.41100
C618        C  0.64936701  0.98997615  0.95780745     0.32300
C619        C  0.62782659  0.00855559  0.02324323     0.01000
F620        F  0.60032056  0.92256223  0.01078407    -0.13400
F621        F  0.66606316  0.01190887  0.94097285    -0.13900
C622        C  0.61731765  0.05381714  0.02664217     0.15900
C623        C  0.62118381  0.07597388  0.04873912     0.25300
C624        C  0.63542209  0.05325113  0.06803373    -0.41000
C625        C  0.64342083  0.00663327  0.06536492     0.32200
C626        C  0.63984556  0.98455430  0.04310436     0.14000
F627        F  0.60424349  0.07721037  0.00825506    -0.13400
F628        F  0.65693613  0.98356045  0.08364248    -0.13900
F629        F  0.61192399  0.12041058  0.05103543    -0.16200
F630        F  0.65020511  0.94079293  0.04049690    -0.14700
F631        F  0.65772423  0.05276353  0.98432882    -0.14700
F632        F  0.61036857  0.88050212  0.96770863    -0.16100
C633        C  0.53395225  0.17234803  0.14092209     0.13900
C634        C  0.52112586  0.14036861  0.15686771     0.00900
C635        C  0.54034831  0.11088066  0.16990617     0.15900
C636        C  0.57156606  0.11168757  0.16606773     0.25300
C637        C  0.58426265  0.14216513  0.14911078    -0.41100
C638        C  0.56501342  0.17359540  0.13726170     0.32300
C639        C  0.48775677  0.13520546  0.15781190     0.01000
F640        F  0.52880777  0.08031470  0.18590041    -0.13400
F641        F  0.57597685  0.20453274  0.12118739    -0.13900
C642        C  0.47452273  0.09266826  0.15211738     0.15900
C643        C  0.44341171  0.08914531  0.14893572     0.25300
C644        C  0.42467880  0.12833895  0.15095947    -0.41000
C645        C  0.43774512  0.17040238  0.15789663     0.32200
C646        C  0.46890186  0.17366814  0.16151827     0.14000
F647        F  0.49193160  0.05504510  0.14780768    -0.13400
F648        F  0.42048845  0.20870075  0.16060960    -0.13900
F649        F  0.43203474  0.04790306  0.14196778    -0.16200
F650        F  0.48082930  0.21485508  0.16793463    -0.14700
F651        F  0.51620468  0.20058834  0.12756550    -0.14700
F652        F  0.58907163  0.08104248  0.17812213    -0.16100
C653        C  0.89178454  0.44830199  0.99248691     0.13900
C654        C  0.87978623  0.49180840  0.99797061     0.00900
C655        C  0.86719848  0.51837117  0.97934554     0.15900
C656        C  0.86545442  0.50092434  0.95589053     0.25300
C657        C  0.87580052  0.45611735  0.95056273    -0.41100
C658        C  0.88988797  0.43061584  0.96913303     0.32300
C659        C  0.87923893  0.50875895  0.02321674     0.01000
F660        F  0.85525689  0.56050459  0.98410271    -0.13400
F661        F  0.90100251  0.38768535  0.96507180    -0.13900
C662        C  0.89303279  0.55054685  0.02933044     0.15900
C663        C  0.89030981  0.56853688  0.05258369     0.25300
C664        C  0.87350919  0.54514019  0.07038841    -0.41000
C665        C  0.86079396  0.50214023  0.06439983     0.32200
C666        C  0.86367470  0.48422002  0.04110759     0.14000
F667        F  0.90879844  0.57445994  0.01257628    -0.13400
F668        F  0.84435913  0.47816404  0.08070579    -0.13900
F669        F  0.90321309  0.60990905  0.05723313    -0.16200
F670        F  0.84988403  0.44387384  0.03568913    -0.14700
F671        F  0.90498034  0.42248708  0.00991903    -0.14700
F672        F  0.85284130  0.52758314  0.93860408    -0.16100
C673        C  0.68846217  0.63883387  0.89349831     0.13900
C674        C  0.71641280  0.62427042  0.88450729     0.00900
C675        C  0.73368685  0.65528574  0.87091196     0.15900
C676        C  0.72475332  0.70122045  0.86841448     0.25300
C677        C  0.69827305  0.71726530  0.87949302    -0.41100
C678        C  0.67936100  0.68500486  0.89095347     0.32300
C679        C  0.72959230  0.57899695  0.89133645     0.01000
F680        F  0.76020794  0.64158047  0.86113728    -0.13400
F681        F  0.65336333  0.69878414  0.90153643    -0.13900
C682        C  0.71692098  0.53707750  0.88376192     0.15900
C683        C  0.73252246  0.49535571  0.88730661     0.25300
C684        C  0.76091750  0.49527923  0.89838376    -0.41000
C685        C  0.77245364  0.53683633  0.90727406     0.32200
C686        C  0.75684365  0.57814140  0.90404820     0.14000
F687        F  0.69064308  0.53693577  0.87142504    -0.13400
F688        F  0.79985106  0.53779658  0.91783672    -0.13900
F689        F  0.72127377  0.45582915  0.87795172    -0.16200
F690        F  0.76912394  0.61788921  0.91229971    -0.14700
F691        F  0.67109461  0.60933746  0.90633452    -0.14700
F692        F  0.74299312  0.73062636  0.85628767    -0.16100
C693        C  0.78401189  0.16048071  0.86431901     0.13900
C694        C  0.79245672  0.13025530  0.88285629     0.00900
C695        C  0.81255638  0.14519972  0.90048886     0.15900
C696        C  0.82289715  0.19061696  0.90040606     0.25300
C697        C  0.81292621  0.22224144  0.88274295    -0.41100
C698        C  0.79416231  0.20614920  0.86421353     0.32300
C699        C  0.77697813  0.08569652  0.88575891     0.01000
F700        F  0.82055015  0.11663263  0.91875613    -0.13400
F701        F  0.78464852  0.23498332  0.84654427    -0.13900
C702        C  0.78990516  0.04439938  0.87767635     0.15900
C703        C  0.77408563  0.00280879  0.87971585     0.25300
C704        C  0.74498990  0.00205793  0.88989461    -0.41000
C705        C  0.73282908  0.04367379  0.89878727     0.32200
C706        C  0.74870160  0.08487889  0.89676011     0.14000
F707        F  0.81750159  0.04460104  0.86728833    -0.13400
F708        F  0.70521432  0.04501652  0.90903949    -0.13900
F709        F  0.78683089  0.96378713  0.87087135    -0.16200
F710        F  0.73623877  0.12441463  0.90527681    -0.14700
F711        F  0.76469360  0.14629630  0.84700192    -0.14700
F712        F  0.84074855  0.20434106  0.91881229    -0.16100
C713        C  0.03886125  0.40406868  0.86172096     0.13900
C714        C  0.02328294  0.36318268  0.85641223     0.00900
C715        C  0.03985379  0.32239549  0.85237729     0.15900
C716        C  0.07103551  0.32169287  0.85571180     0.25300
C717        C  0.08618386  0.36213074  0.86211535    -0.41100
C718        C  0.07008582  0.40362088  0.86415487     0.32300
C719        C  0.98994904  0.36194089  0.85828597     0.01000
F720        F  0.02564863  0.28281190  0.84619542    -0.13400
F721        F  0.08432085  0.44298655  0.87071540    -0.13900
C722        C  0.97177524  0.39449915  0.84633342     0.15900
C723        C  0.94077436  0.39657930  0.85082902     0.25300
C724        C  0.92726412  0.36542678  0.86694981    -0.41000
C725        C  0.94540469  0.33173995  0.87812062     0.32200
C726        C  0.97632329  0.33041473  0.87405606     0.14000
F727        F  0.98414427  0.42492267  0.83066312    -0.13400
F728        F  0.93368699  0.30196606  0.89444985    -0.13900
F729        F  0.92411986  0.42960475  0.83975286    -0.16200
F730        F  0.99324066  0.30011551  0.88688391    -0.14700
F731        F  0.02373035  0.44368837  0.86656314    -0.14700
F732        F  0.08633571  0.28139748  0.85333779    -0.16100
C733        C  0.79325517  0.28911886  0.00319042     0.13900
C734        C  0.77723944  0.24798958  0.99946218     0.00900
C735        C  0.77128377  0.23340989  0.97591933     0.15900
C736        C  0.77972303  0.26060680  0.95644459     0.25300
C737        C  0.79494757  0.30240767  0.96012275    -0.41100
C738        C  0.80243121  0.31589366  0.98357264     0.32300
C739        C  0.76360970  0.22310983  0.01988855     0.01000
F740        F  0.75693472  0.19292370  0.97183138    -0.13400
F741        F  0.81770394  0.35561720  0.98747521    -0.13900
C742        C  0.73228991  0.21832126  0.02072271     0.15900
C743        C  0.71851832  0.19834645  0.04057583     0.25300
C744        C  0.73573174  0.18339840  0.06034705    -0.41000
C745        C  0.76728889  0.18598524  0.05902577     0.32200
C746        C  0.78113032  0.20581773  0.03888712     0.14000
F747        F  0.71479689  0.23508702  0.00271763    -0.13400
F748        F  0.78465006  0.17153581  0.07762050    -0.13900
F749        F  0.68809561  0.19489973  0.04065884    -0.16200
F750        F  0.81153806  0.20887524  0.03808862    -0.14700
F751        F  0.79889889  0.30425671  0.02580170    -0.14700
F752        F  0.77366950  0.24541444  0.93389282    -0.16100
C753        C  0.74102690  0.64590223  0.27915110     0.13900
C754        C  0.73361725  0.60736689  0.26527198     0.00900
C755        C  0.71141842  0.57684450  0.27362542     0.15900
C756        C  0.69804586  0.58357392  0.29628079     0.25300
C757        C  0.70660857  0.62114166  0.31072493    -0.41100
C758        C  0.72765842  0.65285834  0.30155136     0.32300
C759        C  0.74824873  0.60138874  0.24155186     0.01000
F760        F  0.70337189  0.53992132  0.26016196    -0.13400
F761        F  0.73580295  0.69038831  0.31454135    -0.13900
C762        C  0.77823497  0.58628316  0.23974090     0.15900
C763        C  0.79348988  0.58781815  0.21759738     0.25300
C764        C  0.77906599  0.60521001  0.19693574    -0.41000
C765        C  0.74846857  0.61868792  0.19893411     0.32200
C766        C  0.73341445  0.61666596  0.22091818     0.14000
F767        F  0.79285853  0.57077429  0.25956473    -0.13400
F768        F  0.73279931  0.63460842  0.17969696    -0.13900
F769        F  0.82235485  0.57279584  0.21652423    -0.16200
F770        F  0.70449478  0.63150267  0.22226218    -0.14700
F771        F  0.76145989  0.67683409  0.27095854    -0.14700
F772        F  0.67810848  0.55204951  0.30461177    -0.16100
C773        C  0.74290133  0.88206661  0.72488713     0.13900
C774        C  0.75514224  0.90876436  0.74343084     0.00900
C775        C  0.78064483  0.93582990  0.73845590     0.15900
C776        C  0.79392014  0.93532039  0.71545354     0.25300
C777        C  0.78211590  0.90730416  0.69702896    -0.41100
C778        C  0.75617646  0.88099653  0.70217574     0.32300
C779        C  0.74179345  0.90578773  0.76801292     0.01000
F780        F  0.79321010  0.96180334  0.75602116    -0.13400
F781        F  0.74309591  0.85419533  0.68518113    -0.13900
C782        C  0.73856406  0.86242227  0.77900374     0.15900
C783        C  0.72473623  0.85815727  0.80143213     0.25300
C784        C  0.71409882  0.89729482  0.81384321    -0.41000
C785        C  0.71731753  0.94088268  0.80290059     0.32200
C786        C  0.73100898  0.94505980  0.78017746     0.14000
F787        F  0.74947192  0.82392130  0.76816831    -0.13400
F788        F  0.70845512  0.97963817  0.81460283    -0.13900
F789        F  0.72218821  0.81539997  0.81118056    -0.16200
F790        F  0.73362156  0.98743021  0.77003531    -0.14700
F791        F  0.71769143  0.85686220  0.72875225    -0.14700
F792        F  0.81843370  0.96191427  0.71137055    -0.16100
C793        C  0.77927931  0.74681008  0.53425904     0.13900
C794        C  0.76304886  0.77060692  0.51664489     0.00900
C795        C  0.75801722  0.81828728  0.51907404     0.15900
C796        C  0.76901351  0.84191281  0.53911302     0.25300
C797        C  0.78532392  0.81801629  0.55672280    -0.41100
C798        C  0.79036405  0.77027488  0.55412955     0.32300
C799        C  0.75012963  0.74518663  0.49632140     0.01000
F800        F  0.74270537  0.84184995  0.50189376    -0.13400
F801        F  0.80531212  0.74595879  0.57126555    -0.13900
C802        C  0.71890057  0.74198118  0.49415232     0.15900
C803        C  0.70623442  0.71955502  0.47454872     0.25300
C804        C  0.72471929  0.70012286  0.45658859    -0.41000
C805        C  0.75614068  0.70169311  0.45937627     0.32200
C806        C  0.76874031  0.72391169  0.47921387     0.14000
F807        F  0.70063322  0.76105797  0.51100349    -0.13400
F808        F  0.77466428  0.68234436  0.44279368    -0.13900
F809        F  0.67582752  0.71892733  0.47268921    -0.16200
F810        F  0.79908479  0.72588465  0.48138065    -0.14700
F811        F  0.78365044  0.70057430  0.53252706    -0.14700
F812        F  0.76446085  0.88804708  0.54099633    -0.16100
C813        C  0.25403739  0.56813729  0.28365708     0.13900
C814        C  0.25216290  0.60456990  0.26691120     0.00900
C815        C  0.26893846  0.64485183  0.27132072     0.15900
C816        C  0.28578220  0.64951825  0.29241991     0.25300
C817        C  0.28740008  0.61335719  0.30919519    -0.41100
C818        C  0.27185304  0.57225152  0.30437451     0.32300
C819        C  0.23311303  0.60101985  0.24480152     0.01000
F820        F  0.26889873  0.68007610  0.25523395    -0.13400
F821        F  0.27198525  0.53739265  0.32067014    -0.13900
C822        C  0.21373179  0.63746052  0.23815531     0.15900
C823        C  0.19998277  0.63799590  0.21551236     0.25300
C824        C  0.20406243  0.60113309  0.19951583    -0.41000
C825        C  0.22106222  0.56280818  0.20690213     0.32200
C826        C  0.23578400  0.56294672  0.22919200     0.14000
F827        F  0.20883064  0.67336312  0.25330342    -0.13400
F828        F  0.22574024  0.52709946  0.19158552    -0.13900
F829        F  0.18357767  0.67538530  0.20879013    -0.16200
F830        F  0.25443515  0.52736170  0.23463696    -0.14700
F831        F  0.23734129  0.52949485  0.28068552    -0.14700
F832        F  0.30001851  0.68997993  0.29676873    -0.16100
C833        C  0.46888255  0.60897290  0.36116454     0.13900
C834        C  0.48378384  0.65179647  0.36080187     0.00900
C835        C  0.46636614  0.69243077  0.36068744     0.15900
C836        C  0.43502624  0.69034725  0.36274837     0.25300
C837        C  0.42032277  0.64761537  0.36412053    -0.41100
C838        C  0.43743224  0.60695264  0.36252353     0.32300
C839        C  0.51722830  0.65412033  0.36286414     0.01000
F840        F  0.47979775  0.73430891  0.35933148    -0.13400
F841        F  0.42390425  0.56523105  0.36444002    -0.13900
C842        C  0.53608538  0.62850232  0.34748109     0.15900
C843        C  0.56730330  0.62763506  0.35110803     0.25300
C844        C  0.58037922  0.65337032  0.36976136    -0.41000
C845        C  0.56165539  0.68033944  0.38453708     0.32200
C846        C  0.53047932  0.68024513  0.38133502     0.14000
F847        F  0.52426444  0.60404307  0.32901299    -0.13400
F848        F  0.57331679  0.70442110  0.40322292    -0.13900
F849        F  0.58475954  0.60146356  0.33644566    -0.16200
F850        F  0.51310701  0.70377250  0.39723274    -0.14700
F851        F  0.48481082  0.56902877  0.36201302    -0.14700
F852        F  0.41903146  0.73019001  0.36414185    -0.16100
C853        C  0.28010346  0.93206788  0.77557170     0.13900
C854        C  0.25635792  0.90225331  0.76958092     0.00900
C855        C  0.24796727  0.86806151  0.78604662     0.15900
C856        C  0.26280809  0.86358087  0.80809120     0.25300
C857        C  0.28668621  0.89323883  0.81435395    -0.41100
C858        C  0.29514609  0.92766103  0.79777053     0.32300
C859        C  0.24232092  0.90281924  0.74527621     0.01000
F860        F  0.22541285  0.83847560  0.78060042    -0.13400
F861        F  0.31730764  0.95786058  0.80328630    -0.13900
C862        C  0.25273556  0.87180552  0.72788052     0.15900
C863        C  0.23915953  0.86945802  0.70526690     0.25300
C864        C  0.21463395  0.89834734  0.69926223    -0.41000
C865        C  0.20376654  0.92901163  0.71693632     0.32200
C866        C  0.21752014  0.93119352  0.73975786     0.14000
F867        F  0.27627027  0.84350381  0.73287767    -0.13400
F868        F  0.18050438  0.95780651  0.71194027    -0.13900
F869        F  0.25016633  0.83848805  0.68921303    -0.16200
F870        F  0.20666534  0.96098285  0.75644875    -0.14700
F871        F  0.28881555  0.96524243  0.75984879    -0.14700
F872        F  0.25383826  0.82962242  0.82327489    -0.16100
C873        C  0.96744129  0.83521392  0.65845114     0.13900
C874        C  0.98503649  0.87547700  0.65917560     0.00900
C875        C  0.97029607  0.91856917  0.65989377     0.15900
C876        C  0.93891562  0.92132078  0.65808654     0.25300
C877        C  0.92179967  0.88122809  0.65476612    -0.41100
C878        C  0.93622457  0.83809789  0.65579766     0.32300
C879        C  0.01836179  0.87268570  0.65611485     0.01000
F880        F  0.98632298  0.95828495  0.66010069    -0.13400
F881        F  0.92020101  0.79874053  0.65289473    -0.13900
C882        C  0.03058888  0.84718039  0.63690146     0.15900
C883        C  0.06151507  0.84693503  0.63255083     0.25300
C884        C  0.08105197  0.87340146  0.64678587    -0.41000
C885        C  0.06902465  0.89857556  0.66616040     0.32200
C886        C  0.03805264  0.89763293  0.67101501     0.14000
F887        F  0.01240746  0.82455932  0.62131752    -0.13400
F888        F  0.08722578  0.92437075  0.68029901    -0.13900
F889        F  0.07202961  0.82327030  0.61323746    -0.16200
F890        F  0.02728673  0.92147617  0.69015788    -0.14700
F891        F  0.98065255  0.79297515  0.65901197    -0.14700
F892        F  0.92564223  0.96346535  0.65692378    -0.16100
C893        C  0.21066734  0.81989231  0.50775039     0.13900
C894        C  0.23251600  0.78496986  0.50746912     0.00900
C895        C  0.24673274  0.77206811  0.52892249     0.15900
C896        C  0.23883309  0.79321896  0.55056881     0.25300
C897        C  0.21632035  0.82747346  0.55110067    -0.41100
C898        C  0.20244087  0.84080739  0.52941620     0.32300
C899        C  0.24214288  0.76403390  0.48461586     0.01000
F900        F  0.26842342  0.73904943  0.52883258    -0.13400
F901        F  0.18088139  0.87403140  0.52917450    -0.13900
C902        C  0.26060915  0.78925739  0.46910744     0.15900
C903        C  0.27276280  0.76843426  0.44875579     0.25300
C904        C  0.26655295  0.72191387  0.44349237    -0.41000
C905        C  0.24670491  0.69731112  0.45833020     0.32200
C906        C  0.23476168  0.71821219  0.47896204     0.14000
F907        F  0.26790781  0.83356798  0.47427476    -0.13400
F908        F  0.24020495  0.65255739  0.45359342    -0.13900
F909        F  0.29104836  0.79368761  0.43432817    -0.16200
F910        F  0.21660081  0.69355358  0.49373373    -0.14700
F911        F  0.19711101  0.83332345  0.48704363    -0.14700
F912        F  0.25239152  0.77877450  0.57109940    -0.16100
C913        C  0.24243310  0.14053189  0.27643335     0.13900
C914        C  0.23645354  0.10081258  0.26292825     0.00900
C915        C  0.21394166  0.07035058  0.27102958     0.15900
C916        C  0.19914247  0.07813677  0.29301777     0.25300
C917        C  0.20667831  0.11645171  0.30725120    -0.41100
C918        C  0.22777687  0.14829647  0.29824662     0.32300
C919        C  0.25306130  0.09287436  0.24001581     0.01000
F920        F  0.20717216  0.03205086  0.25816543    -0.13400
F921        F  0.23487956  0.18670613  0.31093579    -0.13900
C922        C  0.28479148  0.09258277  0.23933772     0.15900
C923        C  0.30030282  0.09174440  0.21727427     0.25300
C924        C  0.28429825  0.09113038  0.19552636    -0.41000
C925        C  0.25255576  0.08809674  0.19649595     0.32200
C926        C  0.23723816  0.08945338  0.21837178     0.14000
F927        F  0.30073360  0.09414475  0.26009404    -0.13400
F928        F  0.23596344  0.08476423  0.17610338    -0.13900
F929        F  0.33075286  0.09359725  0.21722072    -0.16200
F930        F  0.20673300  0.08998089  0.21824460    -0.14700
F931        F  0.26264853  0.17202035  0.26847924    -0.14700
F932        F  0.17887912  0.04678113  0.30100986    -0.16100
C933        C  0.15529340  0.02605140  0.53581082     0.13900
C934        C  0.13467253  0.00857730  0.51906253     0.00900
C935        C  0.11404901  0.97502257  0.52657046     0.15900
C936        C  0.11518558  0.95717917  0.55001400     0.25300
C937        C  0.13684892  0.97294953  0.56661680    -0.41100
C938        C  0.15620076  0.00881460  0.55939252     0.32300
C939        C  0.13567662  0.02384505  0.49352140     0.01000
F940        F  0.09361850  0.95804083  0.51083170    -0.13400
F941        F  0.17719658  0.02554657  0.57468927    -0.13900
C942        C  0.15889759  0.00863852  0.47832286     0.15900
C943        C  0.16084057  0.02444796  0.45451536     0.25300
C944        C  0.13976113  0.05638315  0.44545128    -0.41000
C945        C  0.11599447  0.07054709  0.46062492     0.32200
C946        C  0.11391071  0.05419004  0.48432970     0.14000
F947        F  0.18006070  0.97895364  0.48673379    -0.13400
F948        F  0.09497338  0.10094746  0.45268279    -0.13900
F949        F  0.18431609  0.01032467  0.44078894    -0.16200
F950        F  0.09115583  0.06919198  0.49859984    -0.14700
F951        F  0.17513756  0.05909580  0.52909556    -0.14700
F952        F  0.09559395  0.92339296  0.55618413    -0.16100
C953        C  0.28025307  0.97310967  0.35546026     0.13900
C954        C  0.28375907  0.94222842  0.37475681     0.00900
C955        C  0.27232184  0.95465323  0.39751697     0.15900
C956        C  0.25660090  0.99616331  0.40060220     0.25300
C957        C  0.25174463  0.02550870  0.38097922    -0.41100
C958        C  0.26403647  0.01407803  0.35849439     0.32300
C959        C  0.29658317  0.89538199  0.37083747     0.01000
F960        F  0.27442944  0.92507410  0.41636896    -0.13400
F961        F  0.25890976  0.04156100  0.33914147    -0.13900
C962        C  0.31945199  0.87835271  0.38586229     0.15900
C963        C  0.32763901  0.83175969  0.38509360     0.25300
C964        C  0.31304502  0.80135149  0.36928130    -0.41000
C965        C  0.29203209  0.81908684  0.35288488     0.32200
C966        C  0.28386234  0.86569659  0.35361325     0.14000
F967        F  0.33281897  0.90639331  0.40214714    -0.13400
F968        F  0.27829648  0.79069513  0.33696127    -0.13900
F969        F  0.34777667  0.81563837  0.40140065    -0.16200
F970        F  0.26184574  0.88088176  0.33868923    -0.14700
F971        F  0.29157809  0.96279599  0.33344794    -0.14700
F972        F  0.24428778  0.00609320  0.42230282    -0.16100
C973        C  0.21810751  0.36186499  0.35974019     0.13900
C974        C  0.21502299  0.38745439  0.38108058     0.00900
C975        C  0.20093085  0.36701955  0.40093786     0.15900
C976        C  0.19073659  0.32155364  0.39979214     0.25300
C977        C  0.19464852  0.29506112  0.37873162    -0.41100
C978        C  0.20825487  0.31589976  0.35862757     0.32300
C979        C  0.22881097  0.43383233  0.38349314     0.01000
F980        F  0.19791003  0.39076533  0.42181710    -0.13400
F981        F  0.21264466  0.29152029  0.33811708    -0.13900
C982        C  0.21842501  0.47158604  0.36996008     0.15900
C983        C  0.23257667  0.51468842  0.37172803     0.25300
C984        C  0.25764772  0.52054792  0.38687979    -0.41000
C985        C  0.26716601  0.48294759  0.40108543     0.32200
C986        C  0.25289771  0.44020499  0.39940839     0.14000
F987        F  0.19479516  0.46650337  0.35481472    -0.13400
F988        F  0.29088360  0.48714546  0.41625240    -0.13900
F989        F  0.22273140  0.54986245  0.35765716    -0.16200
F990        F  0.26341607  0.40435087  0.41270472    -0.14700
F991        F  0.23204129  0.38066968  0.34038347    -0.14700
F992        F  0.17889413  0.30255492  0.41999146    -0.16100
C993        C  0.23005829  0.44343129  0.77770402     0.13900
C994        C  0.24110603  0.40485777  0.76521910     0.00900
C995        C  0.23856126  0.36104865  0.77564213     0.15900
C996        C  0.22610917  0.35580407  0.79849981     0.25300
C997        C  0.21575772  0.39442831  0.81154991    -0.41100
C998        C  0.21739621  0.43830508  0.80070794     0.32300
C999        C  0.25430871  0.40910533  0.74087810     0.01000
F1000       F  0.24864560  0.32320191  0.76373073    -0.13400
F1001       F  0.20787928  0.47638361  0.81267883    -0.13900
C1002       C  0.28392122  0.42473161  0.73750103     0.15900
C1003       C  0.29737505  0.42302058  0.71461730     0.25300
C1004       C  0.28140756  0.40517776  0.69493169    -0.41000
C1005       C  0.25133282  0.39119040  0.69840494     0.32200
C1006       C  0.23806845  0.39300315  0.72109543     0.14000
F1007       F  0.30014431  0.43980969  0.75654729    -0.13400
F1008       F  0.23451245  0.37578679  0.67972939    -0.13900
F1009       F  0.32628628  0.43680029  0.71195362    -0.16200
F1010       F  0.20937557  0.37813016  0.72389057    -0.14700
F1011       F  0.23157648  0.48596472  0.76760628    -0.14700
F1012       F  0.22446143  0.31267292  0.80793039    -0.16100
C1013       C  0.26684534  0.07238298  0.60616347     0.13900
C1014       C  0.27935909  0.08545846  0.62834564     0.00900
C1015       C  0.27814524  0.05482673  0.64783932     0.15900
C1016       C  0.26328867  0.01273075  0.64556932     0.25300
C1017       C  0.24962536  0.00057079  0.62375033    -0.41100
C1018       C  0.25214808  0.02998232  0.60386082     0.32300
C1019       C  0.29113683  0.13259388  0.63170529     0.01000
F1020       F  0.29028488  0.06659933  0.66933171    -0.13400
F1021       F  0.23860071  0.01911874  0.58279899    -0.13900
C1022       C  0.27557543  0.16390275  0.64643771     0.15900
C1023       C  0.28429538  0.21010420  0.64735100     0.25300
C1024       C  0.30894113  0.22561095  0.63376191    -0.41000
C1025       C  0.32565426  0.19356688  0.62023357     0.32200
C1026       C  0.31662191  0.14744512  0.61906305     0.14000
F1027       F  0.25076795  0.15033465  0.65874437    -0.13400
F1028       F  0.34911979  0.20761162  0.60649085    -0.13900
F1029       F  0.26779021  0.24021348  0.66062403    -0.16200
F1030       F  0.33200414  0.11761131  0.60483254    -0.14700
F1031       F  0.26704887  0.10204289  0.58727586    -0.14700
F1032       F  0.26087446  0.98469727  0.66503667    -0.16100
C1033       C  0.18712899  0.65097165  0.61376990     0.13900
C1034       C  0.21543250  0.63699798  0.62212467     0.00900
C1035       C  0.23349677  0.66855590  0.63447210     0.15900
C1036       C  0.22429774  0.71424716  0.63728983     0.25300
C1037       C  0.19678561  0.72957718  0.62750353    -0.41100
C1038       C  0.17784153  0.69693178  0.61638887     0.32300
C1039       C  0.22725877  0.59026041  0.61736324     0.01000
F1040       F  0.26067232  0.65528843  0.64318694    -0.13400
F1041       F  0.15081578  0.70970525  0.60721349    -0.13900
C1042       C  0.25225409  0.58481019  0.60220701     0.15900
C1043       C  0.26766605  0.54282544  0.60136901     0.25300
C1044       C  0.25820997  0.50552170  0.61562373    -0.41000
C1045       C  0.23165618  0.50992934  0.62926781     0.32200
C1046       C  0.21634493  0.55214941  0.63016727     0.14000
F1047       F  0.26253841  0.62095937  0.58907751    -0.13400
F1048       F  0.22190612  0.47466696  0.64328471    -0.13900
F1049       F  0.29246323  0.53912979  0.58726023    -0.16200
F1050       F  0.19217481  0.55677451  0.64486732    -0.14700
F1051       F  0.16915389  0.62068546  0.60207847    -0.14700
F1052       F  0.24328224  0.74386257  0.64841627    -0.16100
C1053       C  0.37401234  0.52612724  0.53864926     0.13900
C1054       C  0.37129567  0.50337942  0.51639149     0.00900
C1055       C  0.36834945  0.45526054  0.51626925     0.15900
C1056       C  0.36673013  0.43056226  0.53779622     0.25300
C1057       C  0.36740204  0.45343504  0.56025149    -0.41100
C1058       C  0.37194018  0.50151173  0.56035229     0.32300
C1059       C  0.36844268  0.52976341  0.49347730     0.01000
F1060       F  0.36502646  0.43218156  0.49523201    -0.13400
F1061       F  0.37321070  0.52512825  0.58136148    -0.13900
C1062       C  0.38635212  0.51923657  0.47327091     0.15900
C1063       C  0.38156674  0.54176236  0.45121764     0.25300
C1064       C  0.35920341  0.57585457  0.44912330    -0.41000
C1065       C  0.34142263  0.58635789  0.46937366     0.32200
C1066       C  0.34587315  0.56344448  0.49117970     0.14000
F1067       F  0.40860737  0.48730534  0.47493385    -0.13400
F1068       F  0.31875483  0.61768732  0.46783832    -0.13900
F1069       F  0.39912699  0.53085386  0.43208949    -0.16200
F1070       F  0.32718404  0.57291197  0.50984270    -0.14700
F1071       F  0.37787407  0.57250560  0.53937400    -0.14700
F1072       F  0.36302922  0.38420107  0.53639105    -0.16100
C1073       C  0.23490522  0.30264164  0.52832202     0.13900
C1074       C  0.25366454  0.27800997  0.51254667     0.00900
C1075       C  0.28453758  0.27527173  0.51719395     0.15900
C1076       C  0.29649429  0.29585126  0.53753838     0.25300
C1077       C  0.27765408  0.31867787  0.55411615    -0.41100
C1078       C  0.24678489  0.32275587  0.54905516     0.32300
C1079       C  0.24133983  0.25408911  0.49144084     0.01000
F1080       F  0.30308329  0.25109034  0.50243179    -0.13400
F1081       F  0.22793602  0.34469222  0.56447979    -0.13900
C1082       C  0.25316843  0.26307035  0.46854497     0.15900
C1083       C  0.24308167  0.23848731  0.44870284     0.25300
C1084       C  0.22051003  0.20492948  0.45133448    -0.41000
C1085       C  0.20852514  0.19613109  0.47427794     0.32200
C1086       C  0.21904280  0.22034314  0.49421767     0.14000
F1087       F  0.27419223  0.29635407  0.46533681    -0.13400
F1088       F  0.18675087  0.16400551  0.47744181    -0.13900
F1089       F  0.25455008  0.24912807  0.42676816    -0.16200
F1090       F  0.20784717  0.21027717  0.51630172    -0.14700
F1091       F  0.20507628  0.30684814  0.52372896    -0.14700
F1092       F  0.32659678  0.29248025  0.54113664    -0.16100
C1093       C  0.73898337  0.12301823  0.29472024     0.13900
C1094       C  0.75589117  0.11024537  0.27457093     0.00900
C1095       C  0.78649809  0.09910824  0.27745174     0.15900
C1096       C  0.80016330  0.10190513  0.30019644     0.25300
C1097       C  0.78349659  0.11704163  0.32016135    -0.41100
C1098       C  0.75259842  0.12652341  0.31723733     0.32300
C1099       C  0.74203210  0.11271023  0.25038636     0.01000
F1100       F  0.80323331  0.08662711  0.25812064    -0.13400
F1101       F  0.73542364  0.13925132  0.33630696    -0.13900
C1102       C  0.74534757  0.15279465  0.23660615     0.15900
C1103       C  0.73221106  0.15623037  0.21384887     0.25300
C1104       C  0.71546970  0.11925184  0.20416782    -0.41000
C1105       C  0.71133495  0.07958916  0.21852333     0.32200
C1106       C  0.72441185  0.07652104  0.24145703     0.14000
F1107       F  0.76142416  0.18882756  0.24527793    -0.13400
F1108       F  0.69540466  0.04316399  0.21018716    -0.13900
F1109       F  0.73632763  0.19582256  0.20124330    -0.16200
F1110       F  0.72024810  0.03792581  0.25484270    -0.14700
F1111       F  0.70938347  0.13353902  0.29242207    -0.14700
F1112       F  0.82982113  0.09188127  0.30247934    -0.16100
C1113       C  0.82212819  0.38116701  0.38401213     0.13900
C1114       C  0.79479160  0.39482848  0.37358023     0.00900
C1115       C  0.77648223  0.36138135  0.36275253     0.15900
C1116       C  0.78406514  0.31469519  0.36421479     0.25300
C1117       C  0.81013900  0.30056148  0.37650279    -0.41100
C1118       C  0.82986054  0.33438662  0.38537320     0.32300
C1119       C  0.78338575  0.44258222  0.37643196     0.01000
F1120       F  0.75006502  0.37357726  0.35231026    -0.13400
F1121       F  0.85541615  0.32215461  0.39707308    -0.13900
C1122       C  0.77480055  0.46855120  0.35625422     0.15900
C1123       C  0.75867275  0.50957497  0.35916126     0.25300
C1124       C  0.75116765  0.52548578  0.38226559    -0.41000
C1125       C  0.76151341  0.50142368  0.40246818     0.32200
C1126       C  0.77742415  0.46003652  0.39958309     0.14000
F1127       F  0.78089620  0.45310657  0.33374240    -0.13400
F1128       F  0.75414110  0.51599403  0.42487866    -0.13900
F1129       F  0.74926554  0.53295062  0.33937099    -0.16200
F1130       F  0.78493293  0.43516803  0.41937199    -0.14700
F1131       F  0.84063934  0.41303517  0.39388048    -0.14700
F1132       F  0.76511268  0.28312112  0.35459059    -0.16100
C1133       C  0.68930036  0.87727730  0.39060960     0.13900
C1134       C  0.71929616  0.88899262  0.38578460     0.00900
C1135       C  0.73891593  0.85514437  0.37691338     0.15900
C1136       C  0.72938822  0.80963121  0.37428336     0.25300
C1137       C  0.69993104  0.79674027  0.38074047    -0.41100
C1138       C  0.67971291  0.83140037  0.38830040     0.32300
C1139       C  0.73113762  0.93557423  0.39105839     0.01000
F1140       F  0.76781545  0.86599162  0.37156669    -0.13400
F1141       F  0.65097462  0.82067891  0.39420116    -0.13900
C1142       C  0.75321035  0.94104813  0.40888219     0.15900
C1143       C  0.76830491  0.98300790  0.41142342     0.25300
C1144       C  0.76128905  0.02042009  0.39636021    -0.41000
C1145       C  0.73783161  0.01572974  0.37952637     0.32200
C1146       C  0.72297486  0.97354881  0.37684117     0.14000
F1147       F  0.76085534  0.90505542  0.42326791    -0.13400
F1148       F  0.73090256  0.05080666  0.36431834    -0.13900
F1149       F  0.79028613  0.98672714  0.42819541    -0.16200
F1150       F  0.70204558  0.96892117  0.35929256    -0.14700
F1151       F  0.66974483  0.90977066  0.39866638    -0.14700
F1152       F  0.74983451  0.77769004  0.36706673    -0.16100
C1153       C  0.87884375  0.00828400  0.47813232     0.13900
C1154       C  0.88613110  0.03425850  0.49872195     0.00900
C1155       C  0.89051248  0.08201411  0.49608094     0.15900
C1156       C  0.88492182  0.10383775  0.47406970     0.25300
C1157       C  0.87549803  0.07830819  0.45386250    -0.41100
C1158       C  0.87395135  0.02999651  0.45590027     0.32300
C1159       C  0.88572490  0.01262456  0.52316637     0.01000
F1160       F  0.89931573  0.10795597  0.51509535    -0.13400
F1161       F  0.86565213  0.00388535  0.43682678    -0.13900
C1162       C  0.90094747  0.97091624  0.52793341     0.15900
C1163       C  0.89639606  0.94740814  0.54972719     0.25300
C1164       C  0.87746773  0.96600533  0.56755942    -0.41000
C1165       C  0.86424841  0.00932524  0.56352977     0.32200
C1166       C  0.86782603  0.03194914  0.54150590     0.14000
F1167       F  0.91979899  0.95246825  0.51132000    -0.13400
F1168       F  0.84568859  0.02811035  0.58017472    -0.13900
F1169       F  0.91008946  0.90607226  0.55324861    -0.16200
F1170       F  0.85194343  0.07126707  0.53757930    -0.14700
F1171       F  0.87430724  0.96215673  0.47981323    -0.14700
F1172       F  0.88795845  0.15034923  0.47280014    -0.16100
C1173       C  0.96443478  0.12224934  0.34551997     0.13900
C1174       C  0.98327140  0.15520130  0.35627034     0.00900
C1175       C  0.97025278  0.19064890  0.36991460     0.15900
C1176       C  0.93937519  0.19126135  0.37429072     0.25300
C1177       C  0.92068843  0.15582476  0.36547326    -0.41100
C1178       C  0.93338412  0.12254461  0.35003305     0.32300
C1179       C  0.01646549  0.14935792  0.35635048     0.01000
F1180       F  0.98776085  0.22276812  0.38071752    -0.13400
F1181       F  0.91620750  0.08862904  0.34048163    -0.13900
C1182       C  0.03564495  0.18543197  0.34925815     0.15900
C1183       C  0.06670886  0.18237675  0.35331588     0.25300
C1184       C  0.07912564  0.14285944  0.36414825    -0.41000
C1185       C  0.06000752  0.10615601  0.37037720     0.32200
C1186       C  0.02905037  0.10948989  0.36663931     0.14000
F1187       F  0.02415764  0.22408436  0.33896014    -0.13400
F1188       F  0.07098434  0.06827165  0.38177954    -0.13900
F1189       F  0.08458144  0.21818424  0.34692301    -0.16200
F1190       F  0.01110551  0.07497093  0.37467526    -0.14700
F1191       F  0.97635349  0.08848883  0.33155214    -0.14700
F1192       F  0.92814545  0.22543817  0.38836294    -0.16100
C1193       C  0.74268219  0.36692500  0.73594214     0.13900
C1194       C  0.74387438  0.40666218  0.75031397     0.00900
C1195       C  0.72792976  0.44626121  0.74289255     0.15900
C1196       C  0.71170733  0.44624176  0.72116128     0.25300
C1197       C  0.71125261  0.40663072  0.70660690    -0.41100
C1198       C  0.72652054  0.36686693  0.71448214     0.32300
C1199       C  0.76052502  0.40501603  0.77352925     0.01000
F1200       F  0.72818539  0.48490259  0.75660967    -0.13400
F1201       F  0.72662395  0.32808424  0.70084569    -0.13900
C1202       C  0.78476764  0.43471711  0.77851802     0.15900
C1203       C  0.80055021  0.43120522  0.80042859     0.25300
C1204       C  0.79230903  0.39784618  0.81760399    -0.41000
C1205       C  0.76866700  0.36732242  0.81198186     0.32200
C1206       C  0.75283457  0.37133231  0.79050921     0.14000
F1207       F  0.79322277  0.46688987  0.76215367    -0.13400
F1208       F  0.76037280  0.33352207  0.82752452    -0.13900
F1209       F  0.82303785  0.46133026  0.80514265    -0.16200
F1210       F  0.72936028  0.34256264  0.78649138    -0.14700
F1211       F  0.75803573  0.32830711  0.74236175    -0.14700
F1212       F  0.69798580  0.48556581  0.71369645    -0.16100
C1213       C  0.61577992  0.48925134  0.53326860     0.13900
C1214       C  0.64048408  0.51195837  0.52295848     0.00900
C1215       C  0.66592007  0.52033245  0.53723717     0.15900
C1216       C  0.66700538  0.50515067  0.56118820     0.25300
C1217       C  0.64279598  0.48060033  0.57126808    -0.41100
C1218       C  0.61701927  0.47331255  0.55708804     0.32300
C1219       C  0.63980385  0.52710500  0.49736382     0.01000
F1220       F  0.68992802  0.54277997  0.52783239    -0.13400
F1221       F  0.59314580  0.45007657  0.56618935    -0.13900
C1222       C  0.62148837  0.56411475  0.49030746     0.15900
C1223       C  0.62238025  0.58079904  0.46666081     0.25300
C1224       C  0.64163358  0.56067482  0.44932274    -0.41000
C1225       C  0.65902206  0.52212193  0.45626793     0.32200
C1226       C  0.65816922  0.50570757  0.48005356     0.14000
F1227       F  0.60355872  0.58542195  0.50664885    -0.13400
F1228       F  0.67793599  0.50150219  0.44040910    -0.13900
F1229       F  0.60489742  0.61767960  0.46102033    -0.16200
F1230       F  0.67568687  0.46925331  0.48633007    -0.14700
F1231       F  0.59079869  0.48117384  0.51998018    -0.14700
F1232       F  0.69250246  0.51206341  0.57403472    -0.16100
C1233       C  0.77430417  0.67324453  0.64600707     0.13900
C1234       C  0.79442864  0.63967148  0.63739148     0.00900
C1235       C  0.82281178  0.65363193  0.62910615     0.15900
C1236       C  0.83045275  0.70059544  0.62851853     0.25300
C1237       C  0.80964103  0.73447330  0.63597700    -0.41100
C1238       C  0.78174880  0.72001927  0.64527056     0.32300
C1239       C  0.78464836  0.59073504  0.63607230     0.01000
F1240       F  0.84289577  0.62182283  0.62115502    -0.13400
F1241       F  0.76116972  0.75130503  0.65303222    -0.13900
C1242       C  0.78032946  0.56908502  0.61367538     0.15900
C1243       C  0.76505766  0.52679098  0.61222726     0.25300
C1244       C  0.75384982  0.50590793  0.63314660    -0.41000
C1245       C  0.76034192  0.52579615  0.65560123     0.32200
C1246       C  0.77565362  0.56767857  0.65705712     0.14000
F1247       F  0.78872340  0.59068807  0.59310618    -0.13400
F1248       F  0.75036482  0.50570760  0.67616259    -0.13900
F1249       F  0.75896179  0.50844300  0.59036229    -0.16200
F1250       F  0.78027946  0.58704281  0.67893930    -0.14700
F1251       F  0.74668219  0.66085473  0.65408152    -0.14700
F1252       F  0.85749927  0.71295019  0.61930781    -0.16100
C1253       C  0.69071777  0.16187323  0.61623398     0.13900
C1254       C  0.71418182  0.14556873  0.63077609     0.00900
C1255       C  0.72495942  0.17384758  0.64934412     0.15900
C1256       C  0.71436737  0.21906075  0.65202309     0.25300
C1257       C  0.69268150  0.23710665  0.63611866    -0.41100
C1258       C  0.67995939  0.20709933  0.61889145     0.32300
C1259       C  0.72995585  0.10162840  0.62509162     0.01000
F1260       F  0.74689489  0.15824455  0.66423886    -0.13400
F1261       F  0.65867710  0.22233828  0.60330906    -0.13900
C1262       C  0.76033237  0.10289668  0.61842428     0.15900
C1263       C  0.77675604  0.06219584  0.61546163     0.25300
C1264       C  0.76316919  0.01878120  0.61891580    -0.41000
C1265       C  0.73204068  0.01756705  0.62391929     0.32200
C1266       C  0.71562602  0.05867498  0.62701467     0.14000
F1267       F  0.77438499  0.14396636  0.61531318    -0.13400
F1268       F  0.71776336  0.97676623  0.62719891    -0.13900
F1269       F  0.80636284  0.06570370  0.61009216    -0.16200
F1270       F  0.68612588  0.05648406  0.63307675    -0.14700
F1271       F  0.67973798  0.13520438  0.59826570    -0.14700
F1272       F  0.72656534  0.24580521  0.66943711    -0.16100
C1273       C  0.53561007  0.34716670  0.66251273     0.13900
C1274       C  0.51683475  0.38564341  0.65864694     0.00900
C1275       C  0.53024433  0.42847757  0.65366651     0.15900
C1276       C  0.56151047  0.43214829  0.65111891     0.25300
C1277       C  0.58011130  0.39286534  0.65310706    -0.41100
C1278       C  0.56683253  0.35061905  0.65957239     0.32300
C1279       C  0.48355717  0.37996921  0.65656646     0.01000
F1280       F  0.51293136  0.46622282  0.64942515    -0.13400
F1281       F  0.58399347  0.31223791  0.66241953    -0.13900
C1282       C  0.46327612  0.40824823  0.66931169     0.15900
C1283       C  0.43221111  0.40635515  0.66463974     0.25300
C1284       C  0.42075850  0.37592102  0.64715076    -0.41000
C1285       C  0.44112447  0.34570733  0.63558564     0.32200
C1286       C  0.47195693  0.34812011  0.64003444     0.14000
F1287       F  0.47361101  0.43839167  0.68597835    -0.13400
F1288       F  0.43154927  0.31478653  0.61899281    -0.13900
F1289       F  0.41360429  0.43551595  0.67661342    -0.16200
F1290       F  0.49071577  0.32098024  0.62694317    -0.14700
F1291       F  0.52355804  0.30567303  0.66829645    -0.14700
F1292       F  0.57324489  0.47359669  0.64484086    -0.16100
C1293       C  0.74843938  0.26397127  0.54464664     0.13900
C1294       C  0.73702222  0.27358964  0.52171151     0.00900
C1295       C  0.71484384  0.30775795  0.51896424     0.15900
C1296       C  0.70472406  0.33277861  0.53890612     0.25300
C1297       C  0.71693827  0.32420177  0.56180384    -0.41100
C1298       C  0.73861234  0.28904378  0.56448445     0.32300
C1299       C  0.75040859  0.25083619  0.50054950     0.01000
F1300       F  0.70367809  0.31779298  0.49687427    -0.13400
F1301       F  0.74966396  0.27771567  0.58646198    -0.13900
C1302       C  0.73308553  0.22362056  0.48501885     0.15900
C1303       C  0.74617806  0.20373039  0.46458763     0.25300
C1304       C  0.77681600  0.21100821  0.45941416    -0.41000
C1305       C  0.79417949  0.23717054  0.47561451     0.32200
C1306       C  0.78104404  0.25697128  0.49581414     0.14000
F1307       F  0.70354643  0.21629535  0.48967737    -0.13400
F1308       F  0.82396470  0.24429960  0.47190549    -0.13900
F1309       F  0.72869832  0.17835513  0.44967822    -0.16200
F1310       F  0.79818673  0.28338396  0.51051320    -0.14700
F1311       F  0.76917486  0.23006017  0.54780969    -0.14700
F1312       F  0.68341610  0.36582032  0.53575125    -0.16100
loop_ 
_geom_bond_atom_site_label_1 
_geom_bond_atom_site_label_2 
_geom_bond_distance 
_geom_bond_site_symmetry_2 
_ccdc_geom_bond_type 
O1           C16   1.263       .  A
O1           Al9   1.907       .  S
C2           O12   1.268       .  A
C2            O3   1.266       .  A
C2         C1217   1.490       .  S
O3           Al5   1.927       .  S
O4            C6   1.259       .  A
O4           Al5   1.893       .  S
Al5          O13   1.905       .  S
Al5          O15   1.912       .  S
Al5          O14   1.787       .  S
C6           O19   1.261       .  A
C6         C1297   1.476       .  S
O7           C17   1.263       .  A
O7           Al9   1.933       .  S
O8           C21   1.275       .  A
O8          Al18   1.935       .  S
Al9          O22   1.899       .  S
Al9          O19   1.898       .  S
Al9          O14   1.778       .  S
O10          C17   1.256       .  A
O10         Al18   1.895       .  S
O11          C20   1.264       .  A
O11         Al18   1.935       .  S
O12         Al18   1.921       .  S
O13          C20   1.260       .  A
O14         Al18   1.787       .  S
O15          C16   1.262       .  A
C16        C1257   1.494       .  S
C17        C1244   1.479       .  S
C20        C1277   1.492       .  S
C21          O22   1.266       .  A
C21        C1197   1.481       .  S
O23          C38   1.260       .  A
O23         Al31   1.872       .  S
C24          O34   1.260       .  A
C24          O25   1.272       .  A
C24        C1157   1.493       .  S
O25         Al27   1.953       .  S
O26          C28   1.258       .  A
O26         Al27   1.901       .  S
Al27         O35   1.919       .  S
Al27         O37   1.958       .  S
Al27         O36   1.786       .  S
C28          O41   1.258       .  A
C28        C1144   1.480       .  S
O29          C39   1.262       .  A
O29         Al31   1.906       .  S
O30          C43   1.262       .  A
O30         Al40   1.902       .  S
Al31         O44   1.920       .  S
Al31         O41   1.911       .  S
Al31         O36   1.784       .  S
O32          C39   1.261       .  A
O32         Al40   1.901       .  S
O33          C42   1.256       .  A
O33         Al40   1.888       .  S
O34         Al40   1.878       .  S
O35          C42   1.261       .  A
O36         Al40   1.783       .  S
O37          C38   1.273       .  A
C38        C1097   1.484       .  S
C39        C1304   1.482       .  S
C42        C1177   1.491       .  S
C43          O44   1.265       .  A
C43        C1117   1.481       .  S
O45          C60   1.260       .  A
O45         Al53   1.866       .  S
C46          O56   1.258       .  A
C46          O47   1.273       .  A
C46        C1057   1.496       .  S
O47         Al49   1.954       .  S
O48          C50   1.255       .  A
O48         Al49   1.890       .  S
Al49         O57   1.925       .  S
Al49         O59   1.960       .  S
Al49         O58   1.787       .  S
C50          O63   1.256       .  A
C50        C1044   1.478       .  S
O51          C61   1.261       .  A
O51         Al53   1.905       .  S
O52          C65   1.265       .  A
O52         Al62   1.904       .  S
Al53         O66   1.915       .  S
Al53         O63   1.907       .  S
Al53         O58   1.785       .  S
O54          C61   1.259       .  A
O54         Al62   1.893       .  S
O55          C64   1.256       .  A
O55         Al62   1.889       .  S
O56         Al62   1.868       .  S
O57          C64   1.261       .  A
O58         Al62   1.783       .  S
O59          C60   1.274       .  A
C60        C1004   1.486       .  S
C61        C1077   1.475       .  S
C64        C1284   1.498       .  S
C65          O66   1.265       .  A
C65        C1024   1.475       .  S
O67          C82   1.262       .  A
O67         Al75   1.914       .  S
C68          O78   1.268       .  A
C68          O69   1.264       .  A
C68         C944   1.495       .  S
O69         Al71   1.924       .  S
O70          C72   1.260       .  A
O70         Al71   1.886       .  S
Al71         O79   1.907       .  S
Al71         O81   1.906       .  S
Al71         O80   1.786       .  S
C72          O85   1.262       .  A
C72        C1084   1.471       .  S
O73          C83   1.260       .  A
O73         Al75   1.919       .  S
O74          C87   1.274       .  A
O74         Al84   1.933       .  S
Al75         O88   1.895       .  S
Al75         O85   1.900       .  S
Al75         O80   1.781       .  S
O76          C83   1.254       .  A
O76         Al84   1.892       .  S
O77          C86   1.264       .  A
O77         Al84   1.923       .  S
O78         Al84   1.927       .  S
O79          C86   1.262       .  A
O80         Al84   1.785       .  S
O81          C82   1.260       .  A
C82         C977   1.489       .  S
C83         C957   1.469       .  S
C86        C1184   1.481       .  S
C87          O88   1.265       .  A
C87         C917   1.487       .  S
O89         C104   1.261       .  A
O89         Al97   1.894       .  S
C90         O100   1.267       .  A
C90          O91   1.264       .  A
C90         C937   1.496       .  S
O91         Al93   1.920       .  S
O92          C94   1.257       .  A
O92         Al93   1.885       .  S
Al93        O101   1.893       .  S
Al93        O103   1.917       .  S
Al93        O102   1.785       .  S
C94         O107   1.263       .  A
C94         C897   1.479       .  S
O95         C105   1.261       .  A
O95         Al97   1.915       .  S
O96         C109   1.275       .  A
O96        Al106   1.940       .  S
Al97        O110   1.912       .  S
Al97        O107   1.919       .  S
Al97        O102   1.778       .  S
O98         C105   1.258       .  A
O98        Al106   1.898       .  S
O99         C108   1.265       .  A
O99        Al106   1.933       .  S
O100       Al106   1.925       .  S
O101        C108   1.260       .  A
O102       Al106   1.785       .  S
O103        C104   1.263       .  A
C104       C1037   1.488       .  S
C105       C1017   1.466   1_565  S
C108        C884   1.485       .  S
C109        O110   1.266       .  A
C109        C864   1.498       .  S
O111        C126   1.258       .  A
O111       Al119   1.879       .  S
C112        O122   1.259       .  A
C112        O113   1.271       .  A
C112       C1064   1.484       .  S
O113       Al115   1.954       .  S
O114        C116   1.255       .  A
O114       Al115   1.878       .  S
Al115       O123   1.913       .  S
Al115       O125   1.961       .  S
Al115       O124   1.784       .  S
C116        O129   1.266       .  A
C116        C984   1.489       .  S
O117        C127   1.264       .  A
O117       Al119   1.917       .  S
O118        C131   1.264       .  A
O118       Al128   1.895       .  S
Al119       O132   1.933       .  S
Al119       O129   1.946       .  S
Al119       O124   1.782       .  S
O120        C127   1.260       .  A
O120       Al128   1.899       .  S
O121        C130   1.260       .  A
O121       Al128   1.906       .  S
O122       Al128   1.875       .  S
O123        C130   1.262       .  A
O124       Al128   1.779       .  S
O125        C126   1.273       .  A
C126        C817   1.482       .  S
C127        C904   1.474       .  S
C130        C837   1.480       .  S
C131        O132   1.269       .  A
C131        C964   1.476       .  S
O133        C148   1.261       .  A
O133       Al141   1.875       .  S
C134        O144   1.264       .  A
C134        O135   1.272       .  A
C134       C1164   1.485       .  S
O135       Al137   1.938       .  S
O136        C138   1.253       .  A
O136       Al137   1.885       .  S
Al137       O145   1.910       .  S
Al137       O147   1.947       .  S
Al137       O146   1.795       .  S
C138        O151   1.258       .  A
C138       C1264   1.496   1_565  S
O139        C149   1.261       .  A
O139       Al141   1.915       .  S
O140        C153   1.267       .  A
O140       Al150   1.912       .  S
Al141       O154   1.923       .  S
Al141       O151   1.919       .  S
Al141       O146   1.793       .  S
O142        C149   1.254       .  A
O142       Al150   1.881       .  S
O143        C152   1.251       .  A
O143       Al150   1.878       .  S
O144       Al150   1.891       .  S
O145        C152   1.256       .  A
O146       Al150   1.798       .  S
O147        C148   1.272       .  A
C148        C777   1.498       .  S
C149        C797   1.468       .  S
C152        C877   1.479       .  S
C153        O154   1.267       .  A
C153       C1237   1.489       .  S
O155        C170   1.259       .  A
O155       Al163   1.893       .  S
C156        O166   1.269       .  A
C156        O157   1.265       .  A
C156       C1224   1.499       .  S
O157       Al159   1.920       .  S
O158        C160   1.257       .  A
O158       Al159   1.875       .  S
Al159       O167   1.897       .  S
Al159       O169   1.920       .  S
Al159       O168   1.785       .  S
C160        O173   1.263       .  A
C160        C804   1.476       .  S
O161        C171   1.259       .  A
O161       Al163   1.913       .  S
O162        C175   1.273       .  A
O162       Al172   1.928       .  S
Al163       O176   1.904       .  S
Al163       O173   1.914       .  S
Al163       O168   1.780       .  S
O164        C171   1.256       .  A
O164       Al172   1.899       .  S
O165        C174   1.265       .  A
O165       Al172   1.932       .  S
O166       Al172   1.931       .  S
O167        C174   1.261       .  A
O168       Al172   1.785       .  S
O169        C170   1.262       .  A
C170       C1137   1.488       .  S
C171       C1124   1.469       .  S
C174        C844   1.484       .  S
C175        O176   1.267       .  A
C175        C757   1.485       .  S
O177        C192   1.263       .  A
O177       Al185   1.910       .  S
C178        O188   1.267       .  A
C178        O179   1.262       .  A
C178        C657   1.497       .  S
O179       Al181   1.911       .  S
O180        C182   1.258       .  A
O180       Al181   1.891       .  S
Al181       O189   1.885       .  S
Al181       O191   1.902       .  S
Al181       O190   1.784       .  S
C182        O195   1.262       .  A
C182        C737   1.468       .  S
O183        C193   1.264       .  A
O183       Al185   1.921       .  S
O184        C197   1.274       .  A
O184       Al194   1.945       .  S
Al185       O198   1.886       .  S
Al185       O195   1.907       .  S
Al185       O190   1.782       .  S
O186        C193   1.259       .  A
O186       Al194   1.897       .  S
O187        C196   1.265       .  A
O187       Al194   1.935       .  S
O188       Al194   1.925       .  S
O189        C196   1.258       .  A
O190       Al194   1.786       .  S
O191        C192   1.260       .  A
C192        C697   1.486       .  S
C193        C684   1.476       .  S
C196        C724   1.485       .  S
C197        O198   1.262       .  A
C197       C1204   1.491       .  S
O199        C214   1.261       .  A
O199       Al207   1.879       .  S
C200        O210   1.257       .  A
C200        O201   1.270       .  A
C200        C624   1.484       .  S
O201       Al203   1.951       .  S
O202        C204   1.255       .  A
O202       Al203   1.888       .  S
Al203       O211   1.915       .  S
Al203       O213   1.958       .  S
Al203       O212   1.784       .  S
C204        O217   1.259       .  A
C204        C604   1.475       .  S
O205        C215   1.263       .  A
O205       Al207   1.908       .  S
O206        C219   1.261       .  A
O206       Al216   1.897       .  S
Al207       O220   1.917       .  S
Al207       O217   1.922       .  S
Al207       O212   1.789       .  S
O208        C215   1.263       .  A
O208       Al216   1.902       .  S
O209        C218   1.259       .  A
O209       Al216   1.900       .  S
O210       Al216   1.869       .  S
O211        C218   1.262       .  A
O212       Al216   1.782       .  S
O213        C214   1.274       .  A
C214       C1104   1.497       .  S
C215        C744   1.478       .  S
C218        C637   1.495       .  S
C219        O220   1.264       .  A
C219        C577   1.477       .  S
O221        C236   1.259       .  A
O221       Al229   1.868       .  S
C222        O232   1.260       .  A
C222        O223   1.272       .  A
C222        C537   1.491       .  S
O223       Al225   1.952       .  S
O224        C226   1.252       .  A
O224       Al225   1.869       .  S
Al225       O233   1.887       .  S
Al225       O235   1.960       .  S
Al225       O234   1.776       .  S
C226        O239   1.265       .  A
C226        C524   1.491       .  S
O227        C237   1.262       .  A
O227       Al229   1.901       .  S
O228        C241   1.262       .  A
O228       Al238   1.892       .  S
Al229       O242   1.934       .  S
Al229       O239   1.943       .  S
Al229       O234   1.779       .  S
O230        C237   1.263       .  A
O230       Al238   1.920       .  S
O231        C240   1.261       .  A
O231       Al238   1.915       .  S
O232       Al238   1.876       .  S
O233        C240   1.255       .  A
O234       Al238   1.779       .  S
O235        C236   1.273       .  A
C236        C997   1.488       .  S
C237        C564   1.461       .  S
C240        C717   1.469       .  S
C241        O242   1.269       .  A
C241        C504   1.478       .  S
O243        C258   1.260       .  A
O243       Al251   1.891       .  S
C244        O254   1.266       .  A
C244        O245   1.267       .  A
C244        C444   1.500       .  S
O245       Al247   1.927       .  S
O246        C248   1.257       .  A
O246       Al247   1.890       .  S
Al247       O255   1.913       .  S
Al247       O257   1.928       .  S
Al247       O256   1.793       .  S
C248        O261   1.258       .  A
C248        C557   1.480       .  S
O249        C259   1.259       .  A
O249       Al251   1.912       .  S
O250        C263   1.276       .  A
O250       Al260   1.948       .  S
Al251       O264   1.885       .  S
Al251       O261   1.893       .  S
Al251       O256   1.782       .  S
O252        C259   1.255       .  A
O252       Al260   1.887       .  S
O253        C262   1.261       .  A
O253       Al260   1.917       .  S
O254       Al260   1.915       .  S
O255        C262   1.262       .  A
O256       Al260   1.788       .  S
O257        C258   1.265       .  A
C258        C484   1.496       .  S
C259        C464   1.471   1_545  S
C262        C644   1.492       .  S
C263        O264   1.262       .  A
C263        C924   1.493       .  S
O265        C280   1.260       .  A
O265       Al273   1.891       .  S
C266        O276   1.268       .  A
C266        O267   1.267       .  A
C266        C437   1.499       .  S
O267       Al269   1.927       .  S
O268        C270   1.256       .  A
O268       Al269   1.879       .  S
Al269       O277   1.904       .  S
Al269       O279   1.917       .  S
Al269       O278   1.786       .  S
C270        O283   1.264       .  A
C270        C417   1.485       .  S
O271        C281   1.258       .  A
O271       Al273   1.913       .  S
O272        C285   1.277       .  A
O272       Al282   1.940       .  S
Al273       O286   1.916       .  S
Al273       O283   1.917       .  S
Al273       O278   1.777       .  S
O274        C281   1.256       .  A
O274       Al282   1.895       .  S
O275        C284   1.265       .  A
O275       Al282   1.932       .  S
O276       Al282   1.918       .  S
O277        C284   1.260       .  A
O278       Al282   1.785       .  S
O279        C280   1.263       .  A
C280        C517   1.490       .  S
C281        C497   1.464       .  S
C284        C404   1.494       .  S
C285        O286   1.268       .  A
C285        C857   1.497       .  S
O287        C302   1.259       .  A
O287       Al295   1.883       .  S
C288        O298   1.260       .  A
C288        O289   1.271       .  A
C288        C544   1.495       .  S
O289       Al291   1.952       .  S
O290        C292   1.258       .  A
O290       Al291   1.890       .  S
Al291       O299   1.908       .  S
Al291       O301   1.950       .  S
Al291       O300   1.782       .  S
C292        O305   1.264       .  A
C292        C477   1.492       .  S
O293        C303   1.263       .  A
O293       Al295   1.914       .  S
O294        C307   1.264       .  A
O294       Al304   1.904       .  S
Al295       O308   1.917       .  S
Al295       O305   1.933       .  S
Al295       O300   1.782       .  S
O296        C303   1.262       .  A
O296       Al304   1.905       .  S
O297        C306   1.261       .  A
O297       Al304   1.913       .  S
O298       Al304   1.881       .  S
O299        C306   1.261       .  A
O300       Al304   1.782       .  S
O301        C302   1.269       .  A
C302        C824   1.477       .  S
C303        C424   1.472       .  S
C306        C377   1.495       .  S
C307        O308   1.266       .  A
C307        C457   1.482       .  S
O309        C324   1.258       .  A
O309       Al317   1.871       .  S
C310        O320   1.261       .  A
C310        O311   1.272       .  A
C310        C617   1.485       .  S
O311       Al313   1.952       .  S
O312        C314   1.257       .  A
O312       Al313   1.886       .  S
Al313       O321   1.919       .  S
Al313       O323   1.960       .  S
Al313       O322   1.784       .  S
C314        O327   1.262       .  A
C314        C704   1.490   1_565  S
O315        C325   1.260       .  A
O315       Al317   1.904       .  S
O316        C329   1.264       .  A
O316       Al326   1.907       .  S
Al317       O330   1.923       .  S
Al317       O327   1.924       .  S
Al317       O322   1.784       .  S
O318        C325   1.261       .  A
O318       Al326   1.901       .  S
O319        C328   1.258       .  A
O319       Al326   1.900       .  S
O320       Al326   1.884       .  S
O321        C328   1.263       .  A
O322       Al326   1.787       .  S
O323        C324   1.272       .  A
C324        C784   1.491       .  S
C325        C357   1.465       .  S
C328        C397   1.497       .  S
C329        O330   1.267       .  A
C329        C677   1.487       .  S
O331        C346   1.261       .  A
O331       Al339   1.895       .  S
C332        O342   1.267       .  A
C332        O333   1.267       .  A
C332        C664   1.496       .  S
O333       Al335   1.925       .  S
O334        C336   1.255       .  A
O334       Al335   1.879       .  S
Al335       O343   1.895       .  S
Al335       O345   1.913       .  S
Al335       O344   1.783       .  S
C336        O349   1.261       .  A
C336        C364   1.476       .  S
O337        C347   1.260       .  A
O337       Al339   1.918       .  S
O338        C351   1.277       .  A
O338       Al348   1.939       .  S
Al339       O352   1.901       .  S
Al339       O349   1.904       .  S
Al339       O344   1.776       .  S
O340        C347   1.257       .  A
O340       Al348   1.898       .  S
O341        C350   1.264       .  A
O341       Al348   1.936       .  S
O342       Al348   1.913       .  S
O343        C350   1.258       .  A
O344       Al348   1.785       .  S
O345        C346   1.263       .  A
C346        C597   1.488       .  S
C347        C584   1.467       .  S
C350        C384   1.491       .  S
C351        O352   1.266       .  A
C351        C764   1.498       .  S
C353        C354   1.401       .  A
C353        C358   1.389       .  A
C353        F371   1.358       .  S
C354        C359   1.471   1_556  S
C354        C355   1.408       .  A
C355        C356   1.401       .  A
C355        F360   1.358   1_556  S
C356        C357   1.403       .  A
C356        F372   1.357       .  S
C357        C358   1.406       .  A
C358        F361   1.359       .  S
C359        C362   1.401       .  A
C359        C366   1.404       .  A
C362        C363   1.397       .  A
C362        F367   1.358       .  S
C363        C364   1.413       .  A
C363        F369   1.358       .  S
C364        C365   1.407       .  A
C365        C366   1.392       .  A
C365        F368   1.358       .  S
C366        F370   1.358       .  S
C373        C374   1.406       .  A
C373        C378   1.404       .  A
C373        F391   1.358       .  S
C374        C379   1.489   1_455  S
C374        C375   1.405       .  A
C375        C376   1.399       .  A
C375        F380   1.358       .  S
C376        C377   1.413       .  A
C376        F392   1.358       .  S
C377        C378   1.412       .  A
C378        F381   1.358       .  S
C379        C382   1.406       .  A
C379        C386   1.405       .  A
C382        C383   1.403       .  A
C382        F387   1.358       .  S
C383        C384   1.411       .  A
C383        F389   1.358       .  S
C384        C385   1.411       .  A
C385        C386   1.401       .  A
C385        F388   1.358       .  S
C386        F390   1.358       .  S
C393        C394   1.405       .  A
C393        C398   1.399       .  A
C393        F411   1.358       .  S
C394        C399   1.494       .  S
C394        C395   1.409       .  A
C395        C396   1.405       .  A
C395        F400   1.357       .  S
C396        C397   1.411       .  A
C396        F412   1.357       .  S
C397        C398   1.415       .  A
C398        F401   1.358       .  S
C399        C402   1.406       .  A
C399        C406   1.409       .  A
C402        C403   1.400       .  A
C402        F407   1.358       .  S
C403        C404   1.412       .  A
C403        F409   1.358       .  S
C404        C405   1.411       .  A
C405        C406   1.405       .  A
C405        F408   1.358       .  S
C406        F410   1.358       .  S
C413        C414   1.402   1_556  A
C413        C418   1.395       .  A
C413        F431   1.358       .  S
C414        C419   1.472       .  S
C414        C415   1.400       .  A
C415        C416   1.400   1_554  A
C415        F420   1.358       .  S
C416        C417   1.416       .  A
C416        F432   1.358       .  S
C417        C418   1.410       .  A
C418        F421   1.358       .  S
C419        C422   1.407       .  A
C419        C426   1.399       .  A
C422        C423   1.404       .  A
C422        F427   1.358       .  S
C423        C424   1.405       .  A
C423        F429   1.357       .  S
C424        C425   1.408       .  A
C425        C426   1.392       .  A
C425        F428   1.359       .  S
C426        F430   1.358       .  S
C433        C434   1.405       .  A
C433        C438   1.404       .  A
C433        F451   1.358   1_556  S
C434        C439   1.494   1_566  S
C434        C435   1.407   1_565  A
C435        C436   1.404   1_545  A
C435        F440   1.358       .  S
C436        C437   1.412       .  A
C436        F452   1.358   1_565  S
C437        C438   1.415       .  A
C438        F441   1.358       .  S
C439        C442   1.404       .  A
C439        C446   1.407   1_545  A
C442        C443   1.402       .  A
C442        F447   1.358       .  S
C443        C444   1.415       .  A
C443        F449   1.358       .  S
C444        C445   1.412   1_545  A
C445        C446   1.406       .  A
C445        F448   1.357       .  S
C446        F450   1.358       .  S
C453        C454   1.405       .  A
C453        C458   1.403       .  A
C453        F471   1.357       .  S
C454        C459   1.485       .  S
C454        C455   1.407       .  A
C455        C456   1.395       .  A
C455        F460   1.359       .  S
C456        C457   1.407       .  A
C456        F472   1.358       .  S
C457        C458   1.411       .  A
C458        F461   1.357       .  S
C459        C462   1.408       .  A
C459        C466   1.407       .  A
C462        C463   1.405   1_565  A
C462        F467   1.357       .  S
C463        C464   1.406   1_545  A
C463        F469   1.358       .  S
C464        C465   1.403       .  A
C465        C466   1.392       .  A
C465        F468   1.357       .  S
C466        F470   1.359       .  S
C473        C474   1.406       .  A
C473        C478   1.406       .  A
C473        F491   1.357       .  S
C474        C479   1.490       .  S
C474        C475   1.406       .  A
C475        C476   1.398       .  A
C475        F480   1.358       .  S
C476        C477   1.410       .  A
C476        F492   1.358       .  S
C477        C478   1.413       .  A
C478        F481   1.358       .  S
C479        C482   1.405       .  A
C479        C486   1.406       .  A
C482        C483   1.398       .  A
C482        F487   1.358       .  S
C483        C484   1.413       .  A
C483        F489   1.358       .  S
C484        C485   1.414       .  A
C485        C486   1.406       .  A
C485        F488   1.357       .  S
C486        F490   1.358       .  S
C493        C494   1.400       .  A
C493        C498   1.394   1_545  A
C493        F511   1.358       .  S
C494        C499   1.474       .  S
C494        C495   1.408       .  A
C495        C496   1.402       .  A
C495        F500   1.358       .  S
C496        C497   1.402   1_545  A
C496        F512   1.358       .  S
C497        C498   1.405       .  A
C498        F501   1.358       .  S
C499        C502   1.400       .  A
C499        C506   1.404       .  A
C502        C503   1.399       .  A
C502        F507   1.358       .  S
C503        C504   1.412       .  A
C503        F509   1.358       .  S
C504        C505   1.407       .  A
C505        C506   1.397       .  A
C505        F508   1.358       .  S
C506        F510   1.358       .  S
C513        C514   1.403       .  A
C513        C518   1.400       .  A
C513        F531   1.358       .  S
C514        C519   1.485       .  S
C514        C515   1.406       .  A
C515        C516   1.399       .  A
C515        F520   1.358       .  S
C516        C517   1.411       .  A
C516        F532   1.358       .  S
C517        C518   1.413       .  A
C518        F521   1.358       .  S
C519        C522   1.403       .  A
C519        C526   1.406       .  A
C522        C523   1.395       .  A
C522        F527   1.359       .  S
C523        C524   1.415       .  A
C523        F529   1.359       .  S
C524        C525   1.410       .  A
C525        C526   1.404       .  A
C525        F528   1.357       .  S
C526        F530   1.357       .  S
C533        C534   1.408       .  A
C533        C538   1.405       .  A
C533        F551   1.357       .  S
C534        C539   1.488   1_556  S
C534        C535   1.403       .  A
C535        C536   1.398       .  A
C535        F540   1.358   1_556  S
C536        C537   1.414       .  A
C536        F552   1.358       .  S
C537        C538   1.409       .  A
C538        F541   1.358       .  S
C539        C542   1.407       .  A
C539        C546   1.402       .  A
C542        C543   1.406       .  A
C542        F547   1.358       .  S
C543        C544   1.411       .  A
C543        F549   1.357       .  S
C544        C545   1.414       .  A
C545        C546   1.398       .  A
C545        F548   1.358       .  S
C546        F550   1.358   1_554  S
C553        C554   1.401       .  A
C553        C558   1.392       .  A
C553        F571   1.358       .  S
C554        C559   1.473   1_554  S
C554        C555   1.403       .  A
C555        C556   1.400       .  A
C555        F560   1.358   1_554  S
C556        C557   1.412       .  A
C556        F572   1.358       .  S
C557        C558   1.410       .  A
C558        F561   1.358       .  S
C559        C562   1.407       .  A
C559        C566   1.403       .  A
C562        C563   1.396       .  A
C562        F567   1.358   1_556  S
C563        C564   1.399       .  A
C563        F569   1.358       .  S
C564        C565   1.406       .  A
C565        C566   1.397       .  A
C565        F568   1.359       .  S
C566        F570   1.358       .  S
C573        C574   1.404       .  A
C573        C578   1.402       .  A
C573        F591   1.358       .  S
C574        C579   1.481       .  S
C574        C575   1.407       .  A
C575        C576   1.395       .  A
C575        F580   1.358       .  S
C576        C577   1.405       .  A
C576        F592   1.358       .  S
C577        C578   1.410       .  A
C578        F581   1.358       .  S
C579        C582   1.403       .  A
C579        C586   1.410       .  A
C582        C583   1.393       .  A
C582        F587   1.358       .  S
C583        C584   1.405       .  A
C583        F589   1.358       .  S
C584        C585   1.402       .  A
C585        C586   1.405       .  A
C585        F588   1.357       .  S
C586        F590   1.358       .  S
C593        C594   1.401       .  A
C593        C598   1.399       .  A
C593        F611   1.358       .  S
C594        C599   1.476       .  S
C594        C595   1.402       .  A
C595        C596   1.400       .  A
C595        F600   1.358       .  S
C596        C597   1.412       .  A
C596        F612   1.358       .  S
C597        C598   1.414       .  A
C598        F601   1.358       .  S
C599        C602   1.404       .  A
C599        C606   1.403       .  A
C602        C603   1.397       .  A
C602        F607   1.358       .  S
C603        C604   1.405   1_565  A
C603        F609   1.358       .  S
C604        C605   1.408   1_545  A
C605        C606   1.402       .  A
C605        F608   1.358   1_565  S
C606        F610   1.358       .  S
C613        C614   1.410   1_545  A
C613        C618   1.403   1_545  A
C613        F631   1.358       .  S
C614        C619   1.493   1_566  S
C614        C615   1.407       .  A
C615        C616   1.404       .  A
C615        F620   1.358   1_556  S
C616        C617   1.408       .  A
C616        F632   1.358       .  S
C617        C618   1.404       .  A
C618        F621   1.355   1_565  S
C619        C622   1.406       .  A
C619        C626   1.411   1_545  A
C622        C623   1.400       .  A
C622        F627   1.358       .  S
C623        C624   1.410       .  A
C623        F629   1.358       .  S
C624        C625   1.406       .  A
C625        C626   1.405   1_545  A
C625        F628   1.357   1_545  S
C626        F630   1.357       .  S
C633        C634   1.405       .  A
C633        C638   1.398       .  A
C633        F651   1.358       .  S
C634        C639   1.495       .  S
C634        C635   1.409       .  A
C635        C636   1.406       .  A
C635        F640   1.358       .  S
C636        C637   1.412       .  A
C636        F652   1.358       .  S
C637        C638   1.413       .  A
C638        F641   1.358       .  S
C639        C642   1.406       .  A
C639        C646   1.410       .  A
C642        C643   1.401       .  A
C642        F647   1.358       .  S
C643        C644   1.413       .  A
C643        F649   1.358       .  S
C644        C645   1.408       .  A
C645        C646   1.405       .  A
C645        F648   1.357       .  S
C646        F650   1.358       .  S
C653        C654   1.403       .  A
C653        C658   1.401       .  A
C653        F671   1.358   1_556  S
C654        C659   1.490   1_556  S
C654        C655   1.407       .  A
C655        C656   1.403       .  A
C655        F660   1.358       .  S
C656        C657   1.410       .  A
C656        F672   1.355       .  S
C657        C658   1.416       .  A
C658        F661   1.358       .  S
C659        C662   1.403       .  A
C659        C666   1.407       .  A
C662        C663   1.401       .  A
C662        F667   1.358       .  S
C663        C664   1.415       .  A
C663        F669   1.358       .  S
C664        C665   1.412       .  A
C665        C666   1.403       .  A
C665        F668   1.358       .  S
C666        F670   1.358       .  S
C673        C674   1.405       .  A
C673        C678   1.405       .  A
C673        F691   1.357       .  S
C674        C679   1.486       .  S
C674        C675   1.406       .  A
C675        C676   1.396       .  A
C675        F680   1.358       .  S
C676        C677   1.408       .  A
C676        F692   1.358       .  S
C677        C678   1.412       .  A
C678        F681   1.358       .  S
C679        C682   1.408       .  A
C679        C686   1.405       .  A
C682        C683   1.408       .  A
C682        F687   1.357       .  S
C683        C684   1.407       .  A
C683        F689   1.358       .  S
C684        C685   1.403       .  A
C685        C686   1.395       .  A
C685        F688   1.355       .  S
C686        F690   1.359       .  S
C693        C694   1.404       .  A
C693        C698   1.401       .  A
C693        F711   1.358       .  S
C694        C699   1.476       .  S
C694        C695   1.399       .  A
C695        C696   1.397       .  A
C695        F700   1.358       .  S
C696        C697   1.415       .  A
C696        F712   1.358       .  S
C697        C698   1.409       .  A
C698        F701   1.358       .  S
C699        C702   1.402       .  A
C699        C706   1.400       .  A
C702        C703   1.404       .  A
C702        F707   1.357       .  S
C703        C704   1.414       .  A
C703        F709   1.358   1_545  S
C704        C705   1.412       .  A
C705        C706   1.395       .  A
C705        F708   1.355       .  S
C706        F710   1.358       .  S
C713        C714   1.408       .  A
C713        C718   1.397       .  A
C713        F731   1.358       .  S
C714        C719   1.488   1_455  S
C714        C715   1.411       .  A
C715        C716   1.401       .  A
C715        F720   1.358       .  S
C716        C717   1.402       .  A
C716        F732   1.358       .  S
C717        C718   1.404       .  A
C718        F721   1.359       .  S
C719        C722   1.409       .  A
C719        C726   1.406       .  A
C722        C723   1.404       .  A
C722        F727   1.358       .  S
C723        C724   1.409       .  A
C723        F729   1.358       .  S
C724        C725   1.410       .  A
C725        C726   1.395       .  A
C725        F728   1.358       .  S
C726        F730   1.358       .  S
C733        C734   1.408   1_554  A
C733        C738   1.401   1_554  A
C733        F751   1.358       .  S
C734        C739   1.477   1_556  S
C734        C735   1.403       .  A
C735        C736   1.392       .  A
C735        F740   1.358       .  S
C736        C737   1.407       .  A
C736        F752   1.359       .  S
C737        C738   1.404       .  A
C738        F741   1.358       .  S
C739        C742   1.403       .  A
C739        C746   1.406       .  A
C742        C743   1.390       .  A
C742        F747   1.359       .  S
C743        C744   1.409       .  A
C743        F749   1.359       .  S
C744        C745   1.409       .  A
C745        C746   1.402       .  A
C745        F748   1.358       .  S
C746        F750   1.358       .  S
C753        C754   1.400       .  A
C753        C758   1.396       .  A
C753        F771   1.358       .  S
C754        C759   1.482       .  S
C754        C755   1.407       .  A
C755        C756   1.408       .  A
C755        F760   1.357       .  S
C756        C757   1.409       .  A
C756        F772   1.358       .  S
C757        C758   1.410       .  A
C758        F761   1.358       .  S
C759        C762   1.407       .  A
C759        C766   1.396       .  A
C762        C763   1.407       .  A
C762        F767   1.357       .  S
C763        C764   1.410       .  A
C763        F769   1.357       .  S
C764        C765   1.420       .  A
C765        C766   1.396       .  A
C765        F768   1.358       .  S
C766        F770   1.358       .  S
C773        C774   1.403       .  A
C773        C778   1.395       .  A
C773        F791   1.358       .  S
C774        C779   1.494       .  S
C774        C775   1.410       .  A
C775        C776   1.410       .  A
C775        F780   1.357       .  S
C776        C777   1.412       .  A
C776        F792   1.357       .  S
C777        C778   1.415       .  A
C778        F781   1.358       .  S
C779        C782   1.406       .  A
C779        C786   1.409       .  A
C782        C783   1.397       .  A
C782        F787   1.358       .  S
C783        C784   1.410       .  A
C783        F789   1.358       .  S
C784        C785   1.411       .  A
C785        C786   1.409       .  A
C785        F788   1.358       .  S
C786        F790   1.357       .  S
C793        C794   1.399       .  A
C793        C798   1.391       .  A
C793        F811   1.358       .  S
C794        C799   1.470       .  S
C794        C795   1.407       .  A
C795        C796   1.400       .  A
C795        F800   1.358       .  S
C796        C797   1.402       .  A
C796        F812   1.357       .  S
C797        C798   1.410       .  A
C798        F801   1.359       .  S
C799        C802   1.399       .  A
C799        C806   1.404       .  A
C802        C803   1.392       .  A
C802        F807   1.358       .  S
C803        C804   1.411       .  A
C803        F809   1.358       .  S
C804        C805   1.409       .  A
C805        C806   1.398       .  A
C805        F808   1.358       .  S
C806        F810   1.358       .  S
C813        C814   1.411       .  A
C813        C818   1.406       .  A
C813        F831   1.358       .  S
C814        C819   1.499       .  S
C814        C815   1.411       .  A
C815        C816   1.401       .  A
C815        F820   1.358       .  S
C816        C817   1.405       .  A
C816        F832   1.358       .  S
C817        C818   1.407       .  A
C818        F821   1.358       .  S
C819        C822   1.412       .  A
C819        C826   1.411       .  A
C822        C823   1.402       .  A
C822        F827   1.358       .  S
C823        C824   1.404       .  A
C823        F829   1.358       .  S
C824        C825   1.404       .  A
C825        C826   1.404       .  A
C825        F828   1.358       .  S
C826        F830   1.357       .  S
C833        C834   1.410       .  A
C833        C838   1.404       .  A
C833        F851   1.358       .  S
C834        C839   1.495       .  S
C834        C835   1.409       .  A
C835        C836   1.401       .  A
C835        F840   1.358       .  S
C836        C837   1.406       .  A
C836        F852   1.358       .  S
C837        C838   1.405       .  A
C838        F841   1.358       .  S
C839        C842   1.410       .  A
C839        C846   1.409       .  A
C842        C843   1.405       .  A
C842        F847   1.357       .  S
C843        C844   1.407       .  A
C843        F849   1.358       .  S
C844        C845   1.407       .  A
C845        C846   1.400       .  A
C845        F848   1.358       .  S
C846        F850   1.358       .  S
C853        C854   1.409       .  A
C853        C858   1.412       .  A
C853        F871   1.357       .  S
C854        C859   1.491       .  S
C854        C855   1.401       .  A
C855        C856   1.400       .  A
C855        F860   1.358       .  S
C856        C857   1.414       .  A
C856        F872   1.358       .  S
C857        C858   1.411       .  A
C858        F861   1.357       .  S
C859        C862   1.400       .  A
C859        C866   1.409       .  A
C862        C863   1.399       .  A
C862        F867   1.358       .  S
C863        C864   1.415       .  A
C863        F869   1.358       .  S
C864        C865   1.411       .  A
C865        C866   1.412       .  A
C865        F868   1.357       .  S
C866        F870   1.357       .  S
C873        C874   1.409       .  A
C873        C878   1.400       .  A
C873        F891   1.358       .  S
C874        C879   1.495   1_655  S
C874        C875   1.411       .  A
C875        C876   1.403       .  A
C875        F880   1.357       .  S
C876        C877   1.405       .  A
C876        F892   1.358       .  S
C877        C878   1.406       .  A
C878        F881   1.358       .  S
C879        C882   1.409       .  A
C879        C886   1.410       .  A
C882        C883   1.398       .  A
C882        F887   1.358       .  S
C883        C884   1.408       .  A
C883        F889   1.358       .  S
C884        C885   1.408       .  A
C885        C886   1.405       .  A
C885        F888   1.357       .  S
C886        F890   1.357       .  S
C893        C894   1.402       .  A
C893        C898   1.399       .  A
C893        F911   1.358       .  S
C894        C899   1.473       .  S
C894        C895   1.402       .  A
C895        C896   1.397       .  A
C895        F900   1.358       .  S
C896        C897   1.410       .  A
C896        F912   1.358       .  S
C897        C898   1.410       .  A
C898        F901   1.358       .  S
C899        C902   1.399       .  A
C899        C906   1.407       .  A
C902        C903   1.393       .  A
C902        F907   1.358       .  S
C903        C904   1.410       .  A
C903        F909   1.359       .  S
C904        C905   1.405       .  A
C905        C906   1.403       .  A
C905        F908   1.357       .  S
C906        F910   1.357       .  S
C913        C914   1.403       .  A
C913        C918   1.396       .  A
C913        F931   1.358       .  S
C914        C919   1.491       .  S
C914        C915   1.412       .  A
C915        C916   1.408       .  A
C915        F920   1.358       .  S
C916        C917   1.408       .  A
C916        F932   1.358       .  S
C917        C918   1.411       .  A
C918        F921   1.358       .  S
C919        C922   1.413       .  A
C919        C926   1.400       .  A
C922        C923   1.409       .  A
C922        F927   1.357       .  S
C923        C924   1.405       .  A
C923        F929   1.357       .  S
C924        C925   1.417       .  A
C925        C926   1.396       .  A
C925        F928   1.359       .  S
C926        F930   1.358       .  S
C933        C934   1.405       .  A
C933        C938   1.405       .  A
C933        F951   1.358       .  S
C934        C939   1.489       .  S
C934        C935   1.403   1_545  A
C935        C936   1.404       .  A
C935        F940   1.358       .  S
C936        C937   1.414       .  A
C936        F952   1.358       .  S
C937        C938   1.411   1_565  A
C938        F941   1.356       .  S
C939        C942   1.406       .  A
C939        C946   1.404       .  A
C942        C943   1.404       .  A
C942        F947   1.358   1_545  S
C943        C944   1.410       .  A
C943        F949   1.357       .  S
C944        C945   1.414       .  A
C945        C946   1.405       .  A
C945        F948   1.358       .  S
C946        F950   1.358       .  S
C953        C954   1.406       .  A
C953        C958   1.399   1_565  A
C953        F971   1.358       .  S
C954        C959   1.489       .  S
C954        C955   1.412       .  A
C955        C956   1.402       .  A
C955        F960   1.358       .  S
C956        C957   1.401   1_565  A
C956        F972   1.357   1_565  S
C957        C958   1.405       .  A
C958        F961   1.359       .  S
C959        C962   1.406       .  A
C959        C966   1.410       .  A
C962        C963   1.400       .  A
C962        F967   1.358       .  S
C963        C964   1.408       .  A
C963        F969   1.358       .  S
C964        C965   1.404       .  A
C965        C966   1.400       .  A
C965        F968   1.358       .  S
C966        F970   1.358       .  S
C973        C974   1.408       .  A
C973        C978   1.407       .  A
C973        F991   1.358       .  S
C974        C979   1.487       .  S
C974        C975   1.402       .  A
C975        C976   1.398       .  A
C975        F980   1.358       .  S
C976        C977   1.413       .  A
C976        F992   1.358       .  S
C977        C978   1.409       .  A
C978        F981   1.357       .  S
C979        C982   1.406       .  A
C979        C986   1.405       .  A
C982        C983   1.406       .  A
C982        F987   1.357       .  S
C983        C984   1.411       .  A
C983        F989   1.358       .  S
C984        C985   1.411       .  A
C985        C986   1.398       .  A
C985        F988   1.358       .  S
C986        F990   1.358       .  S
C993        C994   1.405       .  A
C993        C998   1.406       .  A
C993       F1011   1.357       .  S
C994        C999   1.482       .  S
C994        C995   1.401       .  A
C995        C996   1.396       .  A
C995       F1000   1.358       .  S
C996        C997   1.412       .  A
C996       F1012   1.359       .  S
C997        C998   1.410       .  A
C998       F1001   1.357       .  S
C999       C1002   1.408       .  A
C999       C1006   1.400       .  A
C1002      C1003   1.408       .  A
C1002      F1007   1.357       .  S
C1003      C1004   1.407       .  A
C1003      F1009   1.357       .  S
C1004      C1005   1.413       .  A
C1005      C1006   1.395       .  A
C1005      F1008   1.359       .  S
C1006      F1010   1.358       .  S
C1013      C1014   1.408       .  A
C1013      C1018   1.401       .  A
C1013      F1031   1.358       .  S
C1014      C1019   1.478       .  S
C1014      C1015   1.403       .  A
C1015      C1016   1.397       .  A
C1015      F1020   1.358       .  S
C1016      C1017   1.405       .  A
C1016      F1032   1.358   1_545  S
C1017      C1018   1.402       .  A
C1018      F1021   1.357       .  S
C1019      C1022   1.405       .  A
C1019      C1026   1.403       .  A
C1022      C1023   1.398       .  A
C1022      F1027   1.358       .  S
C1023      C1024   1.407       .  A
C1023      F1029   1.358       .  S
C1024      C1025   1.408       .  A
C1025      C1026   1.400       .  A
C1025      F1028   1.358       .  S
C1026      F1030   1.357       .  S
C1033      C1034   1.402       .  A
C1033      C1038   1.403       .  A
C1033      F1051   1.358       .  S
C1034      C1039   1.477       .  S
C1034      C1035   1.402       .  A
C1035      C1036   1.395       .  A
C1035      F1040   1.358       .  S
C1036      C1037   1.411       .  A
C1036      F1052   1.358       .  S
C1037      C1038   1.414       .  A
C1038      F1041   1.358       .  S
C1039      C1042   1.405       .  A
C1039      C1046   1.403       .  A
C1042      C1043   1.397       .  A
C1042      F1047   1.358       .  S
C1043      C1044   1.407       .  A
C1043      F1049   1.358       .  S
C1044      C1045   1.410       .  A
C1045      C1046   1.401       .  A
C1045      F1048   1.358       .  S
C1046      F1050   1.358       .  S
C1053      C1054   1.410       .  A
C1053      C1058   1.406       .  A
C1053      F1071   1.358       .  S
C1054      C1059   1.492       .  S
C1054      C1055   1.403       .  A
C1055      C1056   1.397       .  A
C1055      F1060   1.358       .  S
C1056      C1057   1.416       .  A
C1056      F1072   1.358       .  S
C1057      C1058   1.410       .  A
C1058      F1061   1.357       .  S
C1059      C1062   1.411       .  A
C1059      C1066   1.405       .  A
C1062      C1063   1.406       .  A
C1062      F1067   1.358       .  S
C1063      C1064   1.406       .  A
C1063      F1069   1.357       .  S
C1064      C1065   1.410       .  A
C1065      C1066   1.397       .  A
C1065      F1068   1.359       .  S
C1066      F1070   1.358       .  S
C1073      C1074   1.406       .  A
C1073      C1078   1.399       .  A
C1073      F1091   1.358       .  S
C1074      C1079   1.473       .  S
C1074      C1075   1.401       .  A
C1075      C1076   1.388       .  A
C1075      F1080   1.359       .  S
C1076      C1077   1.411       .  A
C1076      F1092   1.359       .  S
C1077      C1078   1.408       .  A
C1078      F1081   1.358       .  S
C1079      C1082   1.403       .  A
C1079      C1086   1.405       .  A
C1082      C1083   1.391       .  A
C1082      F1087   1.359       .  S
C1083      C1084   1.409       .  A
C1083      F1089   1.359       .  S
C1084      C1085   1.407       .  A
C1085      C1086   1.396       .  A
C1085      F1088   1.358       .  S
C1086      F1090   1.358       .  S
C1093      C1094   1.400       .  A
C1093      C1098   1.397       .  A
C1093      F1111   1.358       .  S
C1094      C1099   1.483       .  S
C1094      C1095   1.409       .  A
C1095      C1096   1.408       .  A
C1095      F1100   1.357       .  S
C1096      C1097   1.406       .  A
C1096      F1112   1.357       .  S
C1097      C1098   1.412       .  A
C1098      F1101   1.358       .  S
C1099      C1102   1.400       .  A
C1099      C1106   1.404       .  A
C1102      C1103   1.399       .  A
C1102      F1107   1.358       .  S
C1103      C1104   1.416       .  A
C1103      F1109   1.358       .  S
C1104      C1105   1.413       .  A
C1105      C1106   1.406       .  A
C1105      F1108   1.357       .  S
C1106      F1110   1.357       .  S
C1113      C1114   1.405       .  A
C1113      C1118   1.401       .  A
C1113      F1131   1.358       .  S
C1114      C1119   1.483       .  S
C1114      C1115   1.406       .  A
C1115      C1116   1.397       .  A
C1115      F1120   1.358       .  S
C1116      C1117   1.408       .  A
C1116      F1132   1.358       .  S
C1117      C1118   1.409       .  A
C1118      F1121   1.358       .  S
C1119      C1122   1.404       .  A
C1119      C1126   1.410       .  A
C1122      C1123   1.398       .  A
C1122      F1127   1.358       .  S
C1123      C1124   1.407       .  A
C1123      F1129   1.359       .  S
C1124      C1125   1.400       .  A
C1125      C1126   1.402       .  A
C1125      F1128   1.357       .  S
C1126      F1130   1.358       .  S
C1133      C1134   1.405       .  A
C1133      C1138   1.405       .  A
C1133      F1151   1.358       .  S
C1134      C1139   1.482       .  S
C1134      C1135   1.402       .  A
C1135      C1136   1.396       .  A
C1135      F1140   1.358       .  S
C1136      C1137   1.411       .  A
C1136      F1152   1.358       .  S
C1137      C1138   1.412       .  A
C1138      F1141   1.358       .  S
C1139      C1142   1.407       .  A
C1139      C1146   1.403       .  A
C1142      C1143   1.400       .  A
C1142      F1147   1.358       .  S
C1143      C1144   1.405   1_565  A
C1143      F1149   1.358       .  S
C1144      C1145   1.411       .  A
C1145      C1146   1.401   1_545  A
C1145      F1148   1.358       .  S
C1146      F1150   1.358       .  S
C1153      C1154   1.411       .  A
C1153      C1158   1.405       .  A
C1153      F1171   1.357   1_545  S
C1154      C1159   1.498       .  S
C1154      C1155   1.407       .  A
C1155      C1156   1.401       .  A
C1155      F1160   1.358       .  S
C1156      C1157   1.412       .  A
C1156      F1172   1.358       .  S
C1157      C1158   1.408       .  A
C1158      F1161   1.357       .  S
C1159      C1162   1.410   1_545  A
C1159      C1166   1.410       .  A
C1162      C1163   1.406       .  A
C1162      F1167   1.358       .  S
C1163      C1164   1.408       .  A
C1163      F1169   1.358       .  S
C1164      C1165   1.404   1_565  A
C1165      C1166   1.399       .  A
C1165      F1168   1.355       .  S
C1166      F1170   1.358       .  S
C1173      C1174   1.408       .  A
C1173      C1178   1.405       .  A
C1173      F1191   1.358       .  S
C1174      C1179   1.487   1_655  S
C1174      C1175   1.403       .  A
C1175      C1176   1.396       .  A
C1175      F1180   1.358       .  S
C1176      C1177   1.413       .  A
C1176      F1192   1.358       .  S
C1177      C1178   1.410       .  A
C1178      F1181   1.357       .  S
C1179      C1182   1.409       .  A
C1179      C1186   1.405       .  A
C1182      C1183   1.404       .  A
C1182      F1187   1.358       .  S
C1183      C1184   1.407       .  A
C1183      F1189   1.358       .  S
C1184      C1185   1.408       .  A
C1185      C1186   1.397       .  A
C1185      F1188   1.358       .  S
C1186      F1190   1.358       .  S
C1193      C1194   1.405       .  A
C1193      C1198   1.395       .  A
C1193      F1211   1.358       .  S
C1194      C1199   1.491       .  S
C1194      C1195   1.410       .  A
C1195      C1196   1.409       .  A
C1195      F1200   1.357       .  S
C1196      C1197   1.407       .  A
C1196      F1212   1.357       .  S
C1197      C1198   1.407       .  A
C1198      F1201   1.358       .  S
C1199      C1202   1.411       .  A
C1199      C1206   1.402       .  A
C1202      C1203   1.412       .  A
C1202      F1207   1.357       .  S
C1203      C1204   1.409       .  A
C1203      F1209   1.357       .  S
C1204      C1205   1.413       .  A
C1205      C1206   1.393       .  A
C1205      F1208   1.359       .  S
C1206      F1210   1.359       .  S
C1213      C1214   1.406       .  A
C1213      C1218   1.405       .  A
C1213      F1231   1.358       .  S
C1214      C1219   1.491       .  S
C1214      C1215   1.406       .  A
C1215      C1216   1.404       .  A
C1215      F1220   1.358       .  S
C1216      C1217   1.410       .  A
C1216      F1232   1.358       .  S
C1217      C1218   1.410       .  A
C1218      F1221   1.358       .  S
C1219      C1222   1.402       .  A
C1219      C1226   1.407       .  A
C1222      C1223   1.402       .  A
C1222      F1227   1.358       .  S
C1223      C1224   1.416       .  A
C1223      F1229   1.358       .  S
C1224      C1225   1.412       .  A
C1225      C1226   1.407       .  A
C1225      F1228   1.358       .  S
C1226      F1230   1.358       .  S
C1233      C1234   1.406       .  A
C1233      C1238   1.399       .  A
C1233      F1251   1.358       .  S
C1234      C1239   1.488       .  S
C1234      C1235   1.405       .  A
C1235      C1236   1.406       .  A
C1235      F1240   1.357       .  S
C1236      C1237   1.411       .  A
C1236      F1252   1.357       .  S
C1237      C1238   1.410       .  A
C1238      F1241   1.358       .  S
C1239      C1242   1.410       .  A
C1239      C1246   1.404       .  A
C1242      C1243   1.407       .  A
C1242      F1247   1.357       .  S
C1243      C1244   1.404       .  A
C1243      F1249   1.357       .  S
C1244      C1245   1.408       .  A
C1245      C1246   1.398       .  A
C1245      F1248   1.359       .  S
C1246      F1250   1.358       .  S
C1253      C1254   1.403       .  A
C1253      C1258   1.403       .  A
C1253      F1271   1.358       .  S
C1254      C1259   1.488       .  S
C1254      C1255   1.406       .  A
C1255      C1256   1.401       .  A
C1255      F1260   1.358       .  S
C1256      C1257   1.410       .  A
C1256      F1272   1.357       .  S
C1257      C1258   1.416       .  A
C1258      F1261   1.358       .  S
C1259      C1262   1.403       .  A
C1259      C1266   1.406       .  A
C1262      C1263   1.397       .  A
C1262      F1267   1.358       .  S
C1263      C1264   1.412       .  A
C1263      F1269   1.355       .  S
C1264      C1265   1.414       .  A
C1265      C1266   1.407       .  A
C1265      F1268   1.357   1_545  S
C1266      F1270   1.357       .  S
C1273      C1274   1.409       .  A
C1273      C1278   1.403       .  A
C1273      F1291   1.358       .  S
C1274      C1279   1.496       .  S
C1274      C1275   1.408       .  A
C1275      C1276   1.404       .  A
C1275      F1280   1.358       .  S
C1276      C1277   1.411       .  A
C1276      F1292   1.358       .  S
C1277      C1278   1.409       .  A
C1278      F1281   1.358       .  S
C1279      C1282   1.410       .  A
C1279      C1286   1.405       .  A
C1282      C1283   1.409       .  A
C1282      F1287   1.357       .  S
C1283      C1284   1.412       .  A
C1283      F1289   1.357       .  S
C1284      C1285   1.414       .  A
C1285      C1286   1.397       .  A
C1285      F1288   1.358       .  S
C1286      F1290   1.358       .  S
C1293      C1294   1.402       .  A
C1293      C1298   1.392       .  A
C1293      F1311   1.358       .  S
C1294      C1299   1.475       .  S
C1294      C1295   1.405       .  A
C1295      C1296   1.400       .  A
C1295      F1300   1.358       .  S
C1296      C1297   1.408       .  A
C1296      F1312   1.358       .  S
C1297      C1298   1.410       .  A
C1298      F1301   1.359       .  S
C1299      C1302   1.405       .  A
C1299      C1306   1.401       .  A
C1302      C1303   1.402       .  A
C1302      F1307   1.358       .  S
C1303      C1304   1.410       .  A
C1303      F1309   1.358       .  S
C1304      C1305   1.412       .  A
C1305      C1306   1.391       .  A
C1305      F1308   1.358       .  S
C1306      F1310   1.359       .  S
