geometry optimzed in LAMMPS
_audit_creation_date              2020-12-01 
_audit_creation_method            'lammps2cif' 
_symmetry_space_group_name_H-M    'P1' 
_symmetry_Int_Tables_number       1 
_symmetry_cell_setting            triclinic 
loop_ 
_symmetry_equiv_pos_as_xyz 
  x,y,z 
_cell_length_a                    36.21171509 
_cell_length_b                    26.286826993050195 
_cell_length_c                    44.2092602871174 
_cell_angle_alpha                 90.03016984802211 
_cell_angle_beta                  90.01507294331736 
_cell_angle_gamma                 89.98498157145107 
loop_ 
_atom_site_label 
_atom_site_type_symbol 
_atom_site_fract_x 
_atom_site_fract_y 
_atom_site_fract_z 
_atom_site_charge 
O1          O  0.98802020  0.17239092  0.98961642    -0.86800
O2          O  0.95170153  0.12530517  0.03634709    -0.83900
C3          C  0.94963281  0.16126236  0.05568046     0.96600
O4          O  0.92816058  0.19797425  0.05136601    -0.83900
O5          O  0.88421111  0.26811058  0.02488207    -0.86600
C6          C  0.90635812  0.29967819  0.01338120     1.01100
O7          O  0.92966957  0.28526352  0.99395902    -0.79300
O8          O  0.96736228  0.22261667  0.95396039    -0.79500
C9          C  0.99360658  0.20772896  0.97077947     1.01100
O10         O  0.93853240  0.12426387  0.94489175    -0.86800
O11         O  0.89795586  0.08372513  0.99194165    -0.83900
C12         C  0.87545011  0.08356800  0.01380553     0.96600
O13         O  0.87837834  0.11769063  0.03380498    -0.83900
O14         O  0.84084269  0.18853126  0.00010891    -0.86500
C15         C  0.83449082  0.22711354  0.98411643     1.01100
O16         O  0.86071329  0.24995288  0.97089864    -0.79400
O17         O  0.89625877  0.18196404  0.93549135    -0.79500
C18         C  0.91316970  0.14221618  0.92804167     1.01100
Cr19       Cr  0.94229372  0.12978545  0.99085439     1.93700
Cr20       Cr  0.88511826  0.19210173  0.02542370     1.93200
Cr21       Cr  0.91384821  0.23125861  0.96533042     1.39100
O22         O  0.91396390  0.18442539  0.99375971    -1.24600
O23         O  0.79917860  0.17122211  0.74516770    -0.86800
O24         O  0.83576634  0.12461883  0.69833520    -0.83900
C25         C  0.83791046  0.16059121  0.67902990     0.96600
O26         O  0.85913871  0.19751418  0.68356743    -0.83900
O27         O  0.90311467  0.26750181  0.71051095    -0.86600
C28         C  0.88102386  0.29903382  0.72214407     1.01100
O29         O  0.85754419  0.28445071  0.74137620    -0.79300
O30         O  0.81970787  0.22126383  0.78100320    -0.79500
C31         C  0.79353229  0.20639820  0.76411519     1.01100
O32         O  0.84854359  0.12292722  0.78985777    -0.86800
O33         O  0.88935551  0.08296066  0.74278773    -0.83900
C34         C  0.91188871  0.08300806  0.72095568     0.96600
O35         O  0.90890931  0.11718560  0.70102125    -0.83900
O36         O  0.94636691  0.18778734  0.73507474    -0.86500
C37         C  0.95262854  0.22601234  0.75143644     1.01100
O38         O  0.92631906  0.24882483  0.76455992    -0.79400
O39         O  0.89070545  0.18062850  0.79952640    -0.79500
C40         C  0.87377462  0.14087750  0.80684745     1.01100
Cr41       Cr  0.84495787  0.12880509  0.74389023     1.93700
Cr42       Cr  0.90214288  0.19151867  0.70964747     1.93200
Cr43       Cr  0.87320405  0.23012377  0.76982827     1.39100
O44         O  0.87320632  0.18354942  0.74122347    -1.24600
O45         O  0.56751169  0.34188448  0.03184941    -0.86800
O46         O  0.60506814  0.27798501  0.99255721    -0.83900
C47         C  0.62832765  0.26316760  0.97320508     0.96600
O48         O  0.65065711  0.29437168  0.96158530    -0.83900
O49         O  0.60716592  0.36418262  0.93423352    -0.86600
C50         C  0.58629546  0.40136133  0.92936230     1.01100
O51         O  0.58385038  0.43730736  0.94866686    -0.79300
O52         O  0.54702255  0.39048972  0.99538330    -0.79500
C53         C  0.54145243  0.35556845  0.01450125     1.01100
O54         O  0.63864223  0.38261568  0.04999601    -0.86800
O55         O  0.67403792  0.31332572  0.01550630    -0.83900
C56         C  0.70034747  0.33605554  0.00236711     0.96600
O57         O  0.69405862  0.37427552  0.98605320    -0.83900
O58         O  0.65691105  0.44449692  0.95169724    -0.86500
C59         C  0.65960213  0.47907070  0.97144176     1.01100
O60         O  0.63691080  0.47943770  0.99316997    -0.79400
O61         O  0.59605034  0.43967138  0.04020531    -0.79500
C62         C  0.62164308  0.42245163  0.05709903     1.01100
Cr63       Cr  0.62096547  0.33256409  0.02071332     1.93700
Cr64       Cr  0.65000883  0.37030779  0.96046852     1.93200
Cr65       Cr  0.59263973  0.43336030  0.99425264     1.39100
O66         O  0.62099529  0.37869325  0.99189065    -1.24600
O67         O  0.71877205  0.34266697  0.20203595    -0.86800
O68         O  0.68163557  0.27875267  0.24170694    -0.83900
C69         C  0.65851397  0.26398501  0.26118963     0.96600
O70         O  0.63654909  0.29540400  0.27313730    -0.83900
O71         O  0.68025707  0.36582265  0.29998892    -0.86600
C72         C  0.70092617  0.40327858  0.30467042     1.01100
O73         O  0.70320896  0.43891844  0.28517113    -0.79300
O74         O  0.73953830  0.39190484  0.23813496    -0.79500
C75         C  0.74502103  0.35684637  0.21907006     1.01100
O76         O  0.64718692  0.38314551  0.18448124    -0.86800
O77         O  0.61248733  0.31403397  0.21933542    -0.83900
C78         C  0.58630846  0.33659421  0.23275642     0.96600
O79         O  0.59266396  0.37501322  0.24890216    -0.83900
O80         O  0.62999433  0.44580580  0.28274567    -0.86500
C81         C  0.62725939  0.48044634  0.26304816     1.01100
O82         O  0.64959175  0.48052174  0.24108021    -0.79400
O83         O  0.68969722  0.44052222  0.19371583    -0.79500
C84         C  0.66385803  0.42308228  0.17714822     1.01100
Cr85       Cr  0.66541442  0.33333574  0.21364767     1.93700
Cr86       Cr  0.63706561  0.37147738  0.27408880     1.93200
Cr87       Cr  0.69384106  0.43452283  0.23964831     1.39100
O88         O  0.66566725  0.37970755  0.24239451    -1.24600
O89         O  0.29942094  0.17295440  0.24521291    -0.86800
O90         O  0.33556892  0.12574196  0.19843117    -0.83900
C91         C  0.33770298  0.16163451  0.17907979     0.96600
O92         O  0.35892795  0.19858871  0.18357888    -0.83900
O93         O  0.40322774  0.26854082  0.21046678    -0.86600
C94         C  0.38127650  0.30009313  0.22229736     1.01100
O95         O  0.35789598  0.28545281  0.24158107    -0.79300
O96         O  0.32021588  0.22236736  0.28122960    -0.79500
C97         C  0.29400461  0.20813185  0.26418867     1.01100
O98         O  0.34863488  0.12423178  0.28993775    -0.86800
O99         O  0.38901597  0.08386839  0.24274135    -0.83900
C100        C  0.41136065  0.08366692  0.22078589     0.96600
O101        O  0.40858692  0.11800900  0.20091387    -0.83900
O102        O  0.44639676  0.18831965  0.23476878    -0.86500
C103        C  0.45289769  0.22648836  0.25109315     1.01100
O104        O  0.42677120  0.24943563  0.26436980    -0.79400
O105        O  0.39129536  0.18129228  0.29938678    -0.79500
C106        C  0.37417962  0.14174057  0.30678617     1.01100
Cr107      Cr  0.34489739  0.13005248  0.24395113     1.93700
Cr108      Cr  0.40207296  0.19242619  0.20951901     1.93200
Cr109      Cr  0.37366768  0.23100082  0.26987138     1.39100
O110        O  0.37334474  0.18455104  0.24120620    -1.24600
O111        O  0.48787725  0.17161635  0.48952942    -0.86800
O112        O  0.45155077  0.12519547  0.53664645    -0.83900
C113        C  0.44923416  0.16120013  0.55594925     0.96600
O114        O  0.42824988  0.19829758  0.55116623    -0.83900
O115        O  0.38453966  0.26823423  0.52378911    -0.86600
C116        C  0.40656801  0.29945885  0.51174263     1.01100
O117        O  0.42985464  0.28433414  0.49250133    -0.79300
O118        O  0.46714837  0.22019988  0.45311180    -0.79500
C119        C  0.49337790  0.20621454  0.47021146     1.01100
O120        O  0.43860310  0.12251927  0.44504218    -0.86800
O121        O  0.39814324  0.08281649  0.49246191    -0.83900
C122        C  0.37563624  0.08302573  0.51431686     0.96600
O123        O  0.37829022  0.11774534  0.53401050    -0.83900
O124        O  0.34103493  0.18784534  0.49978375    -0.86500
C125        C  0.33457400  0.22604084  0.48352287     1.01100
O126        O  0.36071805  0.24866826  0.47010336    -0.79400
O127        O  0.39582975  0.17939371  0.43547117    -0.79500
C128        C  0.41311181  0.13995397  0.42809814     1.01100
Cr129      Cr  0.44233055  0.12889355  0.49104616     1.93700
Cr130      Cr  0.38523828  0.19206484  0.52511159     1.93200
Cr131      Cr  0.41375143  0.22952129  0.46458725     1.39100
O132        O  0.41400819  0.18355992  0.49351870    -1.24600
O133        O  0.21968950  0.34172753  0.70378192    -0.86800
O134        O  0.18318141  0.27847408  0.74399537    -0.83900
C135        C  0.16017386  0.26354379  0.76348966     0.96600
O136        O  0.13770579  0.29461157  0.77512420    -0.83900
O137        O  0.18089243  0.36545955  0.80161212    -0.86600
C138        C  0.20184631  0.40264794  0.80609014     1.01100
O139        O  0.20390009  0.43838878  0.78663015    -0.79300
O140        O  0.24022664  0.39112105  0.73985308    -0.79500
C141        C  0.24585993  0.35608592  0.72082441     1.01100
O142        O  0.14800830  0.38108560  0.68599226    -0.86800
O143        O  0.11355604  0.31215716  0.72136503    -0.83900
C144        C  0.08716955  0.33473374  0.73453264     0.96600
O145        O  0.09327503  0.37338565  0.75056130    -0.83900
O146        O  0.13037857  0.44503115  0.78405921    -0.86500
C147        C  0.12766119  0.47942504  0.76420337     1.01100
O148        O  0.15011174  0.47937388  0.74231111    -0.79400
O149        O  0.19034608  0.43884911  0.69507869    -0.79500
C150        C  0.16476484  0.42085301  0.67842091     1.01100
Cr151      Cr  0.16642592  0.33200667  0.71553308     1.93700
Cr152      Cr  0.13773993  0.37064331  0.77573357     1.93200
Cr153      Cr  0.19445763  0.43356205  0.74109949     1.39100
O154        O  0.16634776  0.37876937  0.74401660    -1.24600
O155        O  0.06833278  0.34121725  0.53201267    -0.86800
O156        O  0.10582179  0.27805991  0.49218323    -0.83900
C157        C  0.12922839  0.26339486  0.47291347     0.96600
O158        O  0.15132435  0.29487921  0.46124117    -0.83900
O159        O  0.10747957  0.36534845  0.43447443    -0.86600
C160        C  0.08674917  0.40280143  0.42991752     1.01100
O161        O  0.08448384  0.43836652  0.44949446    -0.79300
O162        O  0.04787380  0.39112929  0.49613546    -0.79500
C163        C  0.04220386  0.35588304  0.51500535     1.01100
O164        O  0.13967343  0.38141718  0.55028354    -0.86800
O165        O  0.17487895  0.31317224  0.51515902    -0.83900
C166        C  0.20111046  0.33608727  0.50201504     0.96600
O167        O  0.19475651  0.37454127  0.48591929    -0.83900
O168        O  0.15748456  0.44538330  0.45211820    -0.86500
C169        C  0.16023139  0.47982104  0.47196063     1.01100
O170        O  0.13790420  0.47963298  0.49393995    -0.79400
O171        O  0.09740336  0.43915277  0.54103019    -0.79500
C172        C  0.12293701  0.42125055  0.55774603     1.01100
Cr173      Cr  0.12180503  0.33213796  0.52065737     1.93700
Cr174      Cr  0.15054924  0.37096897  0.46053061     1.93200
Cr175      Cr  0.09359988  0.43365422  0.49502635     1.39100
O176        O  0.12177111  0.37887206  0.49216294    -1.24600
O177        O  0.71919526  0.84050120  0.70332310    -0.86800
O178        O  0.68301261  0.77723455  0.74381187    -0.83900
C179        C  0.66023199  0.76259555  0.76357915     0.96600
O180        O  0.63836945  0.79405235  0.77561652    -0.83900
O181        O  0.68216513  0.86566058  0.80118887    -0.86600
C182        C  0.70261921  0.90347561  0.80539529     1.01100
O183        O  0.70419874  0.93882370  0.78569663    -0.79300
O184        O  0.74024072  0.89031601  0.73901972    -0.79500
C185        C  0.74557393  0.85491861  0.72013564     1.01100
O186        O  0.64729442  0.87996316  0.68598285    -0.86800
O187        O  0.61334754  0.81124974  0.72178484    -0.83900
C188        C  0.58717820  0.83376955  0.73524549     0.96600
O189        O  0.59347100  0.87232106  0.75130501    -0.83900
O190        O  0.63096530  0.94469834  0.78373436    -0.86500
C191        C  0.62773974  0.97868193  0.76365811     1.01100
O192        O  0.64993339  0.97847917  0.74157578    -0.79400
O193        O  0.69000006  0.93739939  0.69441997    -0.79500
C194        C  0.66398393  0.91965855  0.67817494     1.01100
Cr195      Cr  0.66608043  0.83091989  0.71544802     1.93700
Cr196      Cr  0.63842834  0.87014805  0.77586200     1.93200
Cr197      Cr  0.69442941  0.93282918  0.74034326     1.39100
O198        O  0.66644593  0.87793542  0.74378555    -1.24600
O199        O  0.56741875  0.84229174  0.53232751    -0.86800
O200        O  0.60485503  0.77863639  0.49269856    -0.83900
C201        C  0.62835655  0.76377603  0.47355958     0.96600
O202        O  0.65073610  0.79505011  0.46204126    -0.83900
O203        O  0.60725627  0.86497053  0.43462082    -0.86600
C204        C  0.58633505  0.90209827  0.42974862     1.01100
O205        O  0.58371468  0.93794736  0.44915364    -0.79300
O206        O  0.54697917  0.89162135  0.49616483    -0.79500
C207        C  0.54131848  0.85670018  0.51525658     1.01100
O208        O  0.63848164  0.88244752  0.55053898    -0.86800
O209        O  0.67381476  0.81385451  0.51584847    -0.83900
C210        C  0.70011947  0.83689476  0.50290980     0.96600
O211        O  0.69383823  0.87522951  0.48670185    -0.83900
O212        O  0.65692145  0.94538783  0.45213643    -0.86500
C213        C  0.65954192  0.98005433  0.47183758     1.01100
O214        O  0.63699784  0.98017052  0.49366149    -0.79400
O215        O  0.59638960  0.94029963  0.54084828    -0.79500
C216        C  0.62168705  0.92233637  0.55779529     1.01100
Cr217      Cr  0.62077793  0.83294011  0.52105543     1.93700
Cr218      Cr  0.64998139  0.87111674  0.46096297     1.93200
Cr219      Cr  0.59269931  0.93413759  0.49483747     1.39100
O220        O  0.62089630  0.87935800  0.49236689    -1.24600
O221        O  0.48821931  0.67198079  0.98934911    -0.86800
O222        O  0.45245946  0.62453515  0.03641886    -0.83900
C223        C  0.45035118  0.66036929  0.05583027     0.96600
O224        O  0.42927693  0.69747055  0.05131552    -0.83900
O225        O  0.38447445  0.76722574  0.02484126    -0.86600
C226        C  0.40609922  0.79891755  0.01279718     1.01100
O227        O  0.42932202  0.78441805  0.99332894    -0.79300
O228        O  0.46697675  0.72139531  0.95350594    -0.79500
C229        C  0.49342760  0.70707179  0.97027891     1.01100
O230        O  0.43883162  0.62305993  0.94495582    -0.86800
O231        O  0.39876558  0.58256950  0.99235698    -0.83900
C232        C  0.37651365  0.58242212  0.01438862     0.96600
O233        O  0.37948352  0.61670991  0.03430329    -0.83900
O234        O  0.34103701  0.68714960  0.00096524    -0.86500
C235        C  0.33440818  0.72503354  0.98444297     1.01100
O236        O  0.36043657  0.74784476  0.97097712    -0.79400
O237        O  0.39585947  0.67979340  0.93576205    -0.79500
C238        C  0.41317187  0.64046682  0.92820028     1.01100
Cr239      Cr  0.44281625  0.62890682  0.99092540     1.93700
Cr240      Cr  0.38580364  0.69117772  0.02574408     1.93200
Cr241      Cr  0.41354686  0.72970532  0.96517693     1.39100
O242        O  0.41423124  0.68331982  0.99384112    -1.24600
O243        O  0.29898764  0.67122736  0.74549390    -0.86800
O244        O  0.33535921  0.62449495  0.69848737    -0.83900
C245        C  0.33759221  0.66032455  0.67909404     0.96600
O246        O  0.35868362  0.69739147  0.68365813    -0.83900
O247        O  0.40245199  0.76764491  0.71069158    -0.86600
C248        C  0.38027548  0.79900826  0.72242797     1.01100
O249        O  0.35691493  0.78416536  0.74167652    -0.79300
O250        O  0.31968492  0.72070800  0.78151647    -0.79500
C251        C  0.29344759  0.70617076  0.76461537     1.01100
O252        O  0.34854510  0.62278549  0.79001479    -0.86800
O253        O  0.38900711  0.58270068  0.74273618    -0.83900
C254        C  0.41152047  0.58282915  0.72088602     0.96600
O255        O  0.40864566  0.61721846  0.70105393    -0.83900
O256        O  0.44597212  0.68779179  0.73507620    -0.86500
C257        C  0.45229995  0.72590263  0.75149469     1.01100
O258        O  0.42602201  0.74889652  0.76453376    -0.79400
O259        O  0.39085604  0.68036688  0.79952495    -0.79500
C260        C  0.37391539  0.64065439  0.80691264     1.01100
Cr261      Cr  0.34469214  0.62867879  0.74403781     1.93700
Cr262      Cr  0.40171961  0.69155041  0.70971859     1.93200
Cr263      Cr  0.37300640  0.72989841  0.77000493     1.39100
O264        O  0.37291849  0.68341183  0.74134157    -1.24600
O265        O  0.06737997  0.84142478  0.03175314    -0.86800
O266        O  0.10350542  0.77759746  0.99137387    -0.83900
C267        C  0.12645785  0.76282588  0.97175243     0.96600
O268        O  0.14851913  0.79416401  0.95988230    -0.83900
O269        O  0.10541534  0.86609760  0.93389256    -0.86600
C270        C  0.08512555  0.90406697  0.92959137     1.01100
O271        O  0.08331882  0.93928086  0.94940108    -0.79300
O272        O  0.04678573  0.89121859  0.99590822    -0.79500
C273        C  0.04120979  0.85593602  0.01477130     1.01100
O274        O  0.13928425  0.87997781  0.04939857    -0.86800
O275        O  0.17314306  0.81083861  0.01383899    -0.83900
C276        C  0.19951942  0.83329977  0.00065693     0.96600
O277        O  0.19347941  0.87198732  0.98465004    -0.83900
O278        O  0.15665791  0.94465423  0.95182523    -0.86500
C279        C  0.15959406  0.97877788  0.97185752     1.01100
O280        O  0.13729603  0.97860110  0.99384863    -0.79400
O281        O  0.09696320  0.93793090  0.04082801    -0.79500
C282        C  0.12284401  0.91992709  0.05713413     1.01100
Cr283      Cr  0.12046298  0.83114403  0.01985730     1.93700
Cr284      Cr  0.14882847  0.87019771  0.95965842     1.93200
Cr285      Cr  0.09272463  0.93330179  0.99484497     1.39100
O286        O  0.12051094  0.87817761  0.99153164    -1.24600
O287        O  0.21968646  0.84159829  0.20293866    -0.86800
O288        O  0.18172560  0.77850447  0.24249328    -0.83900
C289        C  0.15806797  0.76391329  0.26156698     0.96600
O290        O  0.13569067  0.79535903  0.27292950    -0.83900
O291        O  0.17930917  0.86498222  0.30045304    -0.86600
C292        C  0.20048633  0.90185302  0.30528045     1.01100
O293        O  0.20329105  0.93765832  0.28590538    -0.79300
O294        O  0.24015098  0.89113917  0.23902027    -0.79500
C295        C  0.24580828  0.85613521  0.21995228     1.01100
O296        O  0.14890532  0.88230936  0.18441198    -0.86800
O297        O  0.11308731  0.81412411  0.21897570    -0.83900
C298        C  0.08673461  0.83735111  0.23175740     0.96600
O299        O  0.09300174  0.87564930  0.24803651    -0.83900
O300        O  0.13005970  0.94565990  0.28275173    -0.86500
C301        C  0.12753026  0.98018814  0.26299152     1.01100
O302        O  0.15025034  0.98017558  0.24128319    -0.79400
O303        O  0.19103176  0.94001894  0.19427844    -0.79500
C304        C  0.16574866  0.92219906  0.17727835     1.01100
Cr305      Cr  0.16622312  0.83276933  0.21400577     1.93700
Cr306      Cr  0.13674774  0.87135916  0.27394935     1.93200
Cr307      Cr  0.19447707  0.93387450  0.24025285     1.39100
O308        O  0.16608954  0.87927968  0.24265811    -1.24600
O309        O  0.79922893  0.67343662  0.24444317    -0.86800
O310        O  0.83541917  0.62539145  0.19793125    -0.83900
C311        C  0.83730512  0.66103321  0.17840667     0.96600
O312        O  0.85868703  0.69792498  0.18248673    -0.83900
O313        O  0.90273683  0.76880085  0.20848283    -0.86600
C314        C  0.88076354  0.80055918  0.22008086     1.01100
O315        O  0.85743975  0.78628385  0.23951709    -0.79300
O316        O  0.81999341  0.72404434  0.27989793    -0.79500
C317        C  0.79368675  0.70886303  0.26324605     1.01100
O318        O  0.84871416  0.62629673  0.28938630    -0.86800
O319        O  0.88926687  0.58479833  0.24249254    -0.83900
C320        C  0.91167632  0.58422929  0.22056367     0.96600
O321        O  0.90874235  0.61806980  0.20039745    -0.83900
O322        O  0.94634968  0.68975491  0.23346940    -0.86500
C323        C  0.95264002  0.72850049  0.24936990     1.01100
O324        O  0.92642104  0.75139193  0.26255412    -0.79400
O325        O  0.89119443  0.68388180  0.29831254    -0.79500
C326        C  0.87404398  0.64458747  0.30614602     1.01100
Cr327      Cr  0.84493206  0.63083952  0.24338083     1.93700
Cr328      Cr  0.90190389  0.69268549  0.20831528     1.93200
Cr329      Cr  0.87340757  0.73268179  0.26831986     1.39100
O330        O  0.87322705  0.68544402  0.24010954    -1.24600
O331        O  0.98735482  0.67278158  0.48953973    -0.86800
O332        O  0.95147490  0.62477869  0.53628778    -0.83900
C333        C  0.94959536  0.66030859  0.55591802     0.96600
O334        O  0.92823988  0.69727047  0.55193548    -0.83900
O335        O  0.88404856  0.76814082  0.52606640    -0.86600
C336        C  0.90603100  0.79983591  0.51445085     1.01100
O337        O  0.92924716  0.78551420  0.49493480    -0.79300
O338        O  0.96632804  0.72341154  0.45424284    -0.79500
C339        C  0.99275147  0.70831381  0.47078701     1.01100
O340        O  0.93741094  0.62558767  0.44487229    -0.86800
O341        O  0.89730511  0.58405124  0.49202275    -0.83900
C342        C  0.87503454  0.58348960  0.51405453     0.96600
O343        O  0.87806242  0.61740225  0.53419268    -0.83900
O344        O  0.84034284  0.68896833  0.50122930    -0.86500
C345        C  0.83392646  0.72758868  0.48528644     1.01100
O346        O  0.86006231  0.75068125  0.47214826    -0.79400
O347        O  0.89496733  0.68333688  0.43615529    -0.79500
C348        C  0.91202781  0.64401156  0.42821247     1.01100
Cr349      Cr  0.94162873  0.63015176  0.49086810     1.93700
Cr350      Cr  0.88489177  0.69201232  0.52623126     1.93200
Cr351      Cr  0.91301633  0.73202380  0.46613301     1.39100
O352        O  0.91337047  0.68475416  0.49430561    -1.24600
O353        O  0.79759585  0.14100404  0.48928741    -0.86800
O354        O  0.83416188  0.18819418  0.53597063    -0.83900
C355        C  0.83655503  0.15251302  0.55546434     0.96600
O356        O  0.85779560  0.11558950  0.55101781    -0.83900
O357        O  0.90139236  0.04511333  0.52449444    -0.86600
C358        C  0.87902173  0.01353614  0.51325519     1.01100
O359        O  0.85558126  0.02791296  0.49391039    -0.79300
O360        O  0.81804278  0.09052570  0.45368833    -0.79500
C361        C  0.79190122  0.10553455  0.47054251     1.01100
O362        O  0.84734294  0.18871200  0.44433197    -0.86800
O363        O  0.88773833  0.22954169  0.49143404    -0.83900
C364        C  0.91014292  0.22989682  0.51337035     0.96600
O365        O  0.90749369  0.19555802  0.53323203    -0.83900
O366        O  0.94468801  0.12443396  0.49929135    -0.86500
C367        C  0.95083871  0.08563021  0.48340112     1.01100
O368        O  0.92447269  0.06260110  0.47050352    -0.79400
O369        O  0.88917715  0.13030940  0.43506661    -0.79500
C370        C  0.87264019  0.17028562  0.42754528     1.01100
Cr371      Cr  0.84342152  0.18346559  0.49039023     1.93700
Cr372      Cr  0.90063532  0.12114839  0.52488042     1.93200
Cr373      Cr  0.87145687  0.08155009  0.46505490     1.39100
O374        O  0.87162428  0.12871627  0.49333355    -1.24600
O375        O  0.98954167  0.14146293  0.24504719    -0.86800
O376        O  0.95338925  0.18905771  0.19832902    -0.83900
C377        C  0.95137901  0.15336272  0.17882127     0.96600
O378        O  0.93020440  0.11632606  0.18306680    -0.83900
O379        O  0.88623849  0.04578771  0.20916972    -0.86600
C380        C  0.90831031  0.01418755  0.22076780     1.01100
O381        O  0.93151995  0.02860204  0.24028062    -0.79300
O382        O  0.96876505  0.09122698  0.28059857    -0.79500
C383        C  0.99504319  0.10594878  0.26379039     1.01100
O384        O  0.93962711  0.18927705  0.28981268    -0.86800
O385        O  0.89944262  0.23025117  0.24252088    -0.83900
C386        C  0.87714713  0.23050646  0.22049008     0.96600
O387        O  0.88008862  0.19627566  0.20055097    -0.83900
O388        O  0.84244063  0.12493005  0.23385824    -0.86500
C389        C  0.83617508  0.08623092  0.24978225     1.01100
O390        O  0.86239766  0.06353444  0.26308234    -0.79400
O391        O  0.89736763  0.13141047  0.29877636    -0.79500
C392        C  0.91416745  0.17107668  0.30648711     1.01100
Cr393      Cr  0.94377486  0.18413220  0.24378446     1.93700
Cr394      Cr  0.88695012  0.12181965  0.20879312     1.93200
Cr395      Cr  0.91537168  0.08241973  0.26893436     1.39100
O396        O  0.91553145  0.12945701  0.24062021    -1.24600
O397        O  0.07116969  0.97310400  0.70368188    -0.86800
O398        O  0.11046212  0.03573208  0.74274375    -0.83900
C399        C  0.13426018  0.04990837  0.76185217     0.96600
O400        O  0.15639884  0.01814579  0.77317902    -0.83900
O401        O  0.11210371  0.94981340  0.80113509    -0.86600
C402        C  0.09013640  0.91379067  0.80591217     1.01100
O403        O  0.08708204  0.87764931  0.78676720    -0.79300
O404        O  0.05055870  0.92397985  0.73988814    -0.79500
C405        C  0.04501677  0.95889264  0.72077185     1.01100
O406        O  0.14140638  0.93030514  0.68481268    -0.86800
O407        O  0.17830956  0.99810883  0.71907238    -0.83900
C408        C  0.20443187  0.97495430  0.73220468     0.96600
O409        O  0.19788061  0.93661402  0.74833832    -0.83900
O410        O  0.16015889  0.86797031  0.78356843    -0.86500
C411        C  0.16220004  0.83316658  0.76394747     1.01100
O412        O  0.13952888  0.83348308  0.74221410    -0.79400
O413        O  0.09881564  0.87358070  0.69518242    -0.79500
C414        C  0.12406473  0.89067115  0.67792216     1.01100
Cr415      Cr  0.12495108  0.98065566  0.71437270     1.93700
Cr416      Cr  0.15439661  0.94220609  0.77444339     1.93200
Cr417      Cr  0.09579616  0.88052083  0.74112945     1.39100
O418        O  0.12474941  0.93457327  0.74325084    -1.24600
O419        O  0.21734953  0.97086898  0.53198414    -0.86800
O420        O  0.17988761  0.03478144  0.49249374    -0.83900
C421        C  0.15660938  0.04956775  0.47313078     0.96600
O422        O  0.13452341  0.01820364  0.46128781    -0.83900
O423        O  0.17802059  0.94803546  0.43399491    -0.86600
C424        C  0.19906708  0.91095485  0.42931424     1.01100
O425        O  0.20145711  0.87512904  0.44868922    -0.79300
O426        O  0.23803005  0.92200507  0.49567397    -0.79500
C427        C  0.24356180  0.95683298  0.51489605     1.01100
O428        O  0.14608172  0.93011833  0.54978542    -0.86800
O429        O  0.11097250  0.99930286  0.51518015    -0.83900
C430        C  0.08470253  0.97661607  0.50196806     0.96600
O431        O  0.09098864  0.93835383  0.48567318    -0.83900
O432        O  0.12809176  0.86785537  0.45145580    -0.86500
C433        C  0.12543450  0.83330205  0.47120771     1.01100
O434        O  0.14807487  0.83313355  0.49299025    -0.79400
O435        O  0.18870777  0.87304165  0.54021287    -0.79500
C436        C  0.16310847  0.89040793  0.55705029     1.01100
Cr437      Cr  0.16394658  0.98010626  0.52057037     1.93700
Cr438      Cr  0.13512579  0.94215308  0.46019764     1.93200
Cr439      Cr  0.19236517  0.87921477  0.49425677     1.39100
O440        O  0.16406199  0.93391112  0.49172635    -1.24600
O441        O  0.71654493  0.97243867  0.03090083    -0.86800
O442        O  0.67827000  0.03493687  0.99127906    -0.83900
C443        C  0.65459248  0.04950225  0.97221020     0.96600
O444        O  0.63234900  0.01800498  0.96073075    -0.83900
O445        O  0.67659014  0.94905040  0.93328148    -0.86600
C446        C  0.69845621  0.91283741  0.92870935     1.01100
O447        O  0.70111119  0.87670049  0.94787171    -0.79300
O448        O  0.73739817  0.92312828  0.99488255    -0.79500
C449        C  0.74282839  0.95818325  0.01395783     1.01100
O450        O  0.64584248  0.93072247  0.04925044    -0.86800
O451        O  0.60976333  0.99846237  0.01456099    -0.83900
C452        C  0.58356141  0.97523266  0.00156971     0.96600
O453        O  0.59002336  0.93706652  0.98523291    -0.83900
O454        O  0.62783423  0.86769853  0.95057175    -0.86500
C455        C  0.62537782  0.83317890  0.97033203     1.01100
O456        O  0.64798791  0.83334808  0.99211996    -0.79400
O457        O  0.68831400  0.87351264  0.03939351    -0.79500
C458        C  0.66296035  0.89105604  0.05642597     1.01100
Cr459      Cr  0.66297974  0.98052301  0.01969937     1.93700
Cr460      Cr  0.63392780  0.94199500  0.95955428     1.93200
Cr461      Cr  0.69193644  0.87997939  0.99342870     1.39100
O462        O  0.66319346  0.93420124  0.99097906    -1.24600
O463        O  0.56949551  0.97218549  0.20303711    -0.86800
O464        O  0.60726682  0.03547845  0.24272393    -0.83900
C465        C  0.63081460  0.05011583  0.26190359     0.96600
O466        O  0.65287918  0.01855854  0.27358989    -0.83900
O467        O  0.60907876  0.94846569  0.30083291    -0.86600
C468        C  0.58795193  0.91146787  0.30548714     1.01100
O469        O  0.58535843  0.87578349  0.28599149    -0.79300
O470        O  0.54886108  0.92284932  0.23911610    -0.79500
C471        C  0.54331534  0.95781196  0.22002980     1.01100
O472        O  0.64049136  0.93135348  0.18479445    -0.86800
O473        O  0.67599948  0.99969742  0.21958261    -0.83900
C474        C  0.70229201  0.97660843  0.23251770     0.96600
O475        O  0.69596900  0.93849367  0.24892023    -0.83900
O476        O  0.65861048  0.86803929  0.28305459    -0.86500
C477        C  0.66111128  0.83358774  0.26320564     1.01100
O478        O  0.63851771  0.83375361  0.24141566    -0.79400
O479        O  0.59801168  0.87408871  0.19435900    -0.79500
C480        C  0.62347316  0.89167443  0.17746656     1.01100
Cr481      Cr  0.62292761  0.98102737  0.21434025     1.93700
Cr482      Cr  0.65189372  0.94245251  0.27450482     1.93200
Cr483      Cr  0.59440630  0.88000914  0.24036386     1.39100
O484        O  0.62283403  0.93456354  0.24300185    -1.24600
O485        O  0.29688055  0.14054771  0.98929098    -0.86800
O486        O  0.33337818  0.18779630  0.03600288    -0.83900
C487        C  0.33549293  0.15208733  0.05547985     0.96600
O488        O  0.35637270  0.11479879  0.05095454    -0.83900
O489        O  0.39982117  0.04403200  0.02431692    -0.86600
C490        C  0.37772693  0.01257384  0.01257798     1.01100
O491        O  0.35443587  0.02725308  0.99319598    -0.79300
O492        O  0.31736757  0.09092239  0.95328583    -0.79500
C493        C  0.29127317  0.10532031  0.97037388     1.01100
O494        O  0.34659675  0.18847016  0.94449019    -0.86800
O495        O  0.38702990  0.22876984  0.99153099    -0.83900
C496        C  0.40956975  0.22876612  0.01336282     0.96600
O497        O  0.40672700  0.19450364  0.03328692    -0.83900
O498        O  0.44369669  0.12312488  0.99960847    -0.86500
C499        C  0.44984785  0.08456208  0.98351925     1.01100
O500        O  0.42352638  0.06187557  0.97037818    -0.79400
O501        O  0.38881038  0.13060195  0.93532270    -0.79500
C502        C  0.37229936  0.17064768  0.92792230     1.01100
Cr503      Cr  0.34263701  0.18299053  0.99046403     1.93700
Cr504      Cr  0.39945042  0.12008921  0.02496263     1.93200
Cr505      Cr  0.37065493  0.08134028  0.96480000     1.39100
O506        O  0.37070621  0.12808775  0.99332806    -1.24600
O507        O  0.48993084  0.14008645  0.74625325    -0.86800
O508        O  0.45327279  0.18729365  0.69950241    -0.83900
C509        C  0.45065081  0.15162168  0.68001242     0.96600
O510        O  0.42964109  0.11451969  0.68471269    -0.83900
O511        O  0.38556534  0.04463167  0.71180311    -0.86600
C512        C  0.40759542  0.01294536  0.72340431     1.01100
O513        O  0.43114160  0.02742276  0.74262982    -0.79300
O514        O  0.46930398  0.09039062  0.78216684    -0.79500
C515        C  0.49546388  0.10477072  0.76512951     1.01100
O516        O  0.44080156  0.18893642  0.79108069    -0.86800
O517        O  0.40017942  0.22937038  0.74406158    -0.83900
C518        C  0.37771462  0.22965121  0.72216659     0.96600
O519        O  0.38027877  0.19517265  0.70234860    -0.83900
O520        O  0.34286296  0.12510011  0.73658687    -0.86500
C521        C  0.33642103  0.08669279  0.75268559     1.01100
O522        O  0.36259155  0.06363649  0.76581842    -0.79400
O523        O  0.39838904  0.13158227  0.80064585    -0.79500
C524        C  0.41528119  0.17138134  0.80790711     1.01100
Cr525      Cr  0.44433930  0.18302487  0.74509943     1.93700
Cr526      Cr  0.38681402  0.12076483  0.71095735     1.93200
Cr527      Cr  0.41574657  0.08193582  0.77105002     1.39100
O528        O  0.41589465  0.12848893  0.74244355    -1.24600
O529        O  0.21739914  0.47294312  0.03146759    -0.86800
O530        O  0.17878556  0.53529275  0.99177303    -0.83900
C531        C  0.15515695  0.54934046  0.97249948     0.96600
O532        O  0.13345669  0.51732678  0.96085013    -0.83900
O533        O  0.17821832  0.44781717  0.93404970    -0.86600
C534        C  0.19976323  0.41116899  0.92962342     1.01100
O535        O  0.20218524  0.37535744  0.94901417    -0.79300
O536        O  0.23832533  0.42251292  0.99595165    -0.79500
C537        C  0.24374862  0.45791312  0.01480817     1.01100
O538        O  0.14675194  0.43102876  0.05005238    -0.86800
O539        O  0.11048344  0.49831160  0.01498868    -0.83900
C540        C  0.08439369  0.47520373  0.00175878     0.96600
O541        O  0.09096633  0.43699666  0.98546100    -0.83900
O542        O  0.12912489  0.36684960  0.95153262    -0.86500
C543        C  0.12632569  0.33265212  0.97146824     1.01100
O544        O  0.14875182  0.33302574  0.99338491    -0.79400
O545        O  0.18917065  0.37365130  0.04046947    -0.79500
C546        C  0.16373806  0.39129467  0.05734441     1.01100
Cr547      Cr  0.16376780  0.48067901  0.02028418     1.93700
Cr548      Cr  0.13520899  0.44132047  0.96009923     1.93200
Cr549      Cr  0.19282155  0.37954550  0.99454211     1.39100
O550        O  0.16418909  0.43395288  0.99174026    -1.24600
O551        O  0.07027311  0.47220562  0.20335049    -0.86800
O552        O  0.10819070  0.53554559  0.24277288    -0.83900
C553        C  0.13163666  0.55026372  0.26200573     0.96600
O554        O  0.15397903  0.51895685  0.27356224    -0.83900
O555        O  0.11058711  0.44939242  0.30117560    -0.86600
C556        C  0.08920805  0.41274610  0.30596622     1.01100
O557        O  0.08639489  0.37684278  0.28665280    -0.79300
O558        O  0.04968714  0.42377083  0.23984947    -0.79500
C559        C  0.04411315  0.45843119  0.22056101     1.01100
O560        O  0.14125343  0.43087840  0.18518641    -0.86800
O561        O  0.17697029  0.49988989  0.21964111    -0.83900
C562        C  0.20328821  0.47702078  0.23270194     0.96600
O563        O  0.19697728  0.43865178  0.24887433    -0.83900
O564        O  0.15971014  0.36871029  0.28339988    -0.86500
C565        C  0.16202917  0.33415334  0.26362329     1.01100
O566        O  0.13918062  0.33409610  0.24200615    -0.79400
O567        O  0.09844151  0.37421434  0.19505643    -0.79500
C568        C  0.12399791  0.39126841  0.17807519     1.01100
Cr569      Cr  0.12382395  0.48101556  0.21451453     1.93700
Cr570      Cr  0.15310751  0.44296457  0.27466758     1.93200
Cr571      Cr  0.09514918  0.38057194  0.24102362     1.39100
O572        O  0.12378420  0.43491444  0.24334964    -1.24600
O573        O  0.79734770  0.64010625  0.98918522    -0.86800
O574        O  0.83353556  0.68773421  0.03581231    -0.83900
C575        C  0.83573965  0.65210955  0.05533629     0.96600
O576        O  0.85711825  0.61524344  0.05110568    -0.83900
O577        O  0.90115987  0.54484093  0.02477551    -0.86600
C578        C  0.87905576  0.51315934  0.01331235     1.01100
O579        O  0.85567114  0.52741647  0.99390176    -0.79300
O580        O  0.81820071  0.58986440  0.95363281    -0.79500
C581        C  0.79193399  0.60455232  0.97045251     1.01100
O582        O  0.84698890  0.68792557  0.94431334    -0.86800
O583        O  0.88717537  0.72902900  0.99140636    -0.83900
C584        C  0.90954295  0.72942304  0.01335932     0.96600
O585        O  0.90678623  0.69527536  0.03332859    -0.83900
O586        O  0.94450296  0.62408312  0.99979820    -0.86500
C587        C  0.95081785  0.58539667  0.98383038     1.01100
O588        O  0.92457830  0.56239997  0.97074905    -0.79400
O589        O  0.88927747  0.63008013  0.93525100    -0.79500
C590        C  0.87249313  0.66981212  0.92763913     1.01100
Cr591      Cr  0.84299880  0.68281663  0.99033132     1.93700
Cr592      Cr  0.90018681  0.62082788  0.02513344     1.93200
Cr593      Cr  0.87155140  0.58113539  0.96513954     1.39100
O594        O  0.87138619  0.62824016  0.99343267    -1.24600
O595        O  0.99004508  0.64019910  0.74578423    -0.86800
O596        O  0.95401641  0.68698279  0.69868090    -0.83900
C597        C  0.95181120  0.65111338  0.67927342     0.96600
O598        O  0.93069595  0.61410239  0.68380574    -0.83900
O599        O  0.88668356  0.54412215  0.71044904    -0.86600
C600        C  0.90873398  0.51265431  0.72220977     1.01100
O601        O  0.93200614  0.52730423  0.74160849    -0.79300
O602        O  0.96918310  0.59060681  0.78163438    -0.79500
C603        C  0.99549134  0.60511391  0.76480391     1.01100
O604        O  0.94013533  0.68867741  0.79023778    -0.86800
O605        O  0.90017105  0.72889810  0.74278538    -0.83900
C606        C  0.87779507  0.72888090  0.72083927     0.96600
O607        O  0.88072534  0.69450987  0.70098028    -0.83900
O608        O  0.84309787  0.62392953  0.73475172    -0.86500
C609        C  0.83670984  0.58562354  0.75096986     1.01100
O610        O  0.86289571  0.56274732  0.76419281    -0.79400
O611        O  0.89778364  0.63102171  0.79935502    -0.79500
C612        C  0.91453617  0.67078328  0.80689649     1.01100
Cr613      Cr  0.94439400  0.68282248  0.74422597     1.93700
Cr614      Cr  0.88750335  0.62014447  0.70959876     1.93200
Cr615      Cr  0.91586159  0.58158185  0.76992108     1.39100
O616        O  0.91613449  0.62814681  0.74133997    -1.24600
O617        O  0.57046438  0.47199278  0.70346224    -0.86800
O618        O  0.60884350  0.53484015  0.74304003    -0.83900
C619        C  0.63235943  0.54900865  0.76238655     0.96600
O620        O  0.65424390  0.51715961  0.77398456    -0.83900
O621        O  0.61005249  0.44745917  0.80099519    -0.86600
C622        C  0.58869685  0.41067223  0.80552473     1.01100
O623        O  0.58611408  0.37496274  0.78607838    -0.79300
O624        O  0.54966217  0.42258186  0.73944158    -0.79500
C625        C  0.54421917  0.45772808  0.72044304     1.01100
O626        O  0.64125549  0.43027089  0.68504266    -0.86800
O627        O  0.67719425  0.49826497  0.71984039    -0.83900
C628        C  0.70337440  0.47530038  0.73299893     0.96600
O629        O  0.69696388  0.43696824  0.74919709    -0.83900
O630        O  0.65915961  0.36670286  0.78319513    -0.86500
C631        C  0.66156674  0.33227330  0.76333778     1.01100
O632        O  0.63903144  0.33266882  0.74149589    -0.79400
O633        O  0.59843507  0.37350683  0.69455572    -0.79500
C634        C  0.62399605  0.39080636  0.67768459     1.01100
Cr635      Cr  0.62404352  0.48015376  0.71461738     1.93700
Cr636      Cr  0.65286936  0.44114232  0.77473808     1.93200
Cr637      Cr  0.59506920  0.37932031  0.74053533     1.39100
O638        O  0.62375938  0.43363238  0.74322827    -1.24600
O639        O  0.71630663  0.47173788  0.53123779    -0.86800
O640        O  0.67824315  0.53489687  0.49179673    -0.83900
C641        C  0.65463818  0.54974842  0.47273157     0.96600
O642        O  0.63229584  0.51842017  0.46115045    -0.83900
O643        O  0.67560204  0.44873260  0.43331620    -0.86600
C644        C  0.69723779  0.41230967  0.42859128     1.01100
O645        O  0.70021028  0.37643346  0.44789275    -0.79300
O646        O  0.73691699  0.42317733  0.49478133    -0.79500
C647        C  0.74250417  0.45782666  0.51409443     1.01100
O648        O  0.64539737  0.43043500  0.54946839    -0.86800
O649        O  0.60961422  0.49928394  0.51502915    -0.83900
C650        C  0.58333113  0.47642655  0.50193207     0.96600
O651        O  0.58963676  0.43776979  0.48599694    -0.83900
O652        O  0.62669332  0.36797992  0.45115538    -0.86500
C653        C  0.62473171  0.33314217  0.47076638     1.01100
O654        O  0.64753102  0.33329507  0.49242340    -0.79400
O655        O  0.68811335  0.37361383  0.53950804    -0.79500
C656        C  0.66269116  0.39086717  0.55658184     1.01100
Cr657      Cr  0.66273868  0.48044115  0.52009253     1.93700
Cr658      Cr  0.63327059  0.44226936  0.45999869     1.93200
Cr659      Cr  0.69144327  0.37998498  0.49352398     1.39100
O660        O  0.66275136  0.43428571  0.49124094    -1.24600
O661        O  0.29749308  0.64174544  0.48905169    -0.86800
O662        O  0.33422593  0.68770116  0.53602702    -0.83900
C663        C  0.33671350  0.65159737  0.55522714     0.96600
O664        O  0.35773816  0.61456698  0.55030172    -0.83900
O665        O  0.40153361  0.54500185  0.52259249    -0.86600
C666        C  0.37939921  0.51365790  0.51078876     1.01100
O667        O  0.35586948  0.52862531  0.49168997    -0.79300
O668        O  0.31786502  0.59269217  0.45271185    -0.79500
C669        C  0.29183542  0.60675882  0.46999343     1.01100
O670        O  0.34673237  0.69121689  0.44440480    -0.86800
O671        O  0.38732889  0.73039337  0.49178238    -0.83900
C672        C  0.40978332  0.73018873  0.51366729     0.96600
O673        O  0.40727579  0.69529624  0.53321317    -0.83900
O674        O  0.44441356  0.62575150  0.49838461    -0.86500
C675        C  0.45080781  0.58763063  0.48201200     1.01100
O676        O  0.42458333  0.56485532  0.46875649    -0.79400
O677        O  0.38894225  0.63374932  0.43441534    -0.79500
C678        C  0.37219735  0.67380954  0.42741845     1.01100
Cr679      Cr  0.34314251  0.68435752  0.49040221     1.93700
Cr680      Cr  0.40052300  0.62110754  0.52404219     1.93200
Cr681      Cr  0.37143315  0.58362366  0.46368119     1.39100
O682        O  0.37144273  0.62961901  0.49263799    -1.24600
O683        O  0.48994265  0.64195240  0.24591565    -0.86800
O684        O  0.45353637  0.68807922  0.19887043    -0.83900
C685        C  0.45119163  0.65193950  0.17965732     0.96600
O686        O  0.43017824  0.61493499  0.18451352    -0.83900
O687        O  0.38629846  0.54537022  0.21166929    -0.86600
C688        C  0.40841742  0.51401243  0.22345143     1.01100
O689        O  0.43170252  0.52884796  0.24280141    -0.79300
O690        O  0.46937420  0.59282894  0.28210929    -0.79500
C691        C  0.49550461  0.60696434  0.26496129     1.01100
O692        O  0.44047135  0.69122636  0.29047698    -0.86800
O693        O  0.40018766  0.73062735  0.24305332    -0.83900
C694        C  0.37778964  0.73039637  0.22113811     0.96600
O695        O  0.38045993  0.69562996  0.20150527    -0.83900
O696        O  0.34295803  0.62563912  0.23582243    -0.86500
C697        C  0.33658207  0.58730196  0.25200846     1.01100
O698        O  0.36278012  0.56478813  0.26546473    -0.79400
O699        O  0.39815131  0.63378284  0.30014667    -0.79500
C700        C  0.41486905  0.67380257  0.30730578     1.01100
Cr701      Cr  0.44433298  0.68456455  0.24447710     1.93700
Cr702      Cr  0.38717204  0.62140135  0.21047555     1.93200
Cr703      Cr  0.41588075  0.58371975  0.27087144     1.39100
O704        O  0.41601252  0.62984407  0.24203506    -1.24600
C705        C  0.35574594  0.69977141  0.37488777    -0.14800
C706        C  0.38216851  0.69657104  0.39793024     0.07300
C707        C  0.41987120  0.70010688  0.39018585    -0.14800
C708        C  0.43107660  0.70045936  0.35981863    -0.14800
C709        C  0.40468644  0.69650782  0.33678630     0.07300
C710        C  0.36695210  0.69939332  0.34452640    -0.14800
H711        H  0.32663041  0.69627522  0.38016544     0.11300
H712        H  0.44080198  0.69720264  0.40764489     0.11300
H713        H  0.46022619  0.69750160  0.35454768     0.11300
H714        H  0.34604900  0.69595384  0.32707971     0.11300
C715        C  0.54292884  0.55011932  0.51272972    -0.14800
C716        C  0.54769080  0.50213752  0.49931536     0.07300
C717        C  0.52166793  0.48455286  0.47826445    -0.14800
C718        C  0.49157611  0.51462474  0.47055848    -0.14800
C719        C  0.48668678  0.56244855  0.48413375     0.07300
C720        C  0.51284681  0.58019251  0.50502122    -0.14800
H721        H  0.56302232  0.56513683  0.52852366     0.11300
H722        H  0.52505610  0.44814373  0.46708747     0.11300
H723        H  0.47146149  0.49959182  0.45478670     0.11300
H724        H  0.50946341  0.61658894  0.51620722     0.11300
C725        C  0.60613207  0.36461101  0.62552193    -0.14800
C726        C  0.63331260  0.36872243  0.64791078     0.07300
C727        C  0.67077513  0.36615564  0.63934778    -0.14800
C728        C  0.68091908  0.36575901  0.60876639    -0.14800
C729        C  0.65368516  0.36867321  0.58636211     0.07300
C730        C  0.61627333  0.36502626  0.59492983    -0.14800
H731        H  0.57716117  0.36730358  0.63147411     0.11300
H732        H  0.69225197  0.36968643  0.65631389     0.11300
H733        H  0.70983346  0.36934404  0.60280714     0.11300
H734        H  0.59475544  0.36771121  0.57794637     0.11300
C735        C  0.77474226  0.57762941  0.72785703    -0.14800
C736        C  0.80080330  0.56052492  0.74899495     0.07300
C737        C  0.79566168  0.51337244  0.76329722    -0.14800
C738        C  0.76528871  0.48342829  0.75620878    -0.14800
C739        C  0.73926420  0.50046894  0.73502318     0.07300
C740        C  0.74438265  0.54766699  0.72075440    -0.14800
H741        H  0.77836107  0.61342131  0.71608541     0.11300
H742        H  0.81570864  0.49882118  0.77928400     0.11300
H743        H  0.76165464  0.44764809  0.76800179     0.11300
H744        H  0.72433246  0.56222982  0.70476972     0.11300
C745        C  0.93112031  0.69540463  0.85959955    -0.14800
C746        C  0.90455227  0.69243370  0.83666210     0.07300
C747        C  0.86687552  0.69526984  0.84458956    -0.14800
C748        C  0.85588947  0.69520577  0.87500154    -0.14800
C749        C  0.88247468  0.69151414  0.89789517     0.07300
C750        C  0.92013807  0.69452335  0.88999931    -0.14800
H751        H  0.96022178  0.69231493  0.85416204     0.11300
H752        H  0.84584525  0.69241284  0.82721056     0.11300
H753        H  0.82679180  0.69207147  0.88041563     0.11300
H754        H  0.94116995  0.69120439  0.90734657     0.11300
C755        C  0.27427448  0.58015060  0.22923868    -0.14800
C756        C  0.30085171  0.56169406  0.24954195     0.07300
C757        C  0.29631502  0.51325709  0.26240676    -0.14800
C758        C  0.26591437  0.48361072  0.25489527    -0.14800
C759        C  0.23922523  0.50219286  0.23473531     0.07300
C760        C  0.24386842  0.55050413  0.22172992    -0.14800
H761        H  0.27742559  0.61695282  0.21852040     0.11300
H762        H  0.31681191  0.49755199  0.27760903     0.11300
H763        H  0.26275442  0.44682423  0.26563136     0.11300
H764        H  0.22335970  0.56621211  0.20654157     0.11300
C765        C  0.04290008  0.54689926  0.01446737    -0.14800
C766        C  0.04834260  0.50006454  0.99983563     0.07300
C767        C  0.02247620  0.48324230  0.97843856    -0.14800
C768        C  0.99201892  0.51314752  0.97143654    -0.14800
C769        C  0.98667656  0.56008968  0.98597934     0.07300
C770        C  0.01249721  0.57684306  0.00742070    -0.14800
H771        H  0.06277890  0.56126116  0.03066588     0.11300
H772        H  0.02632678  0.44772318  0.96639510     0.11300
H773        H  0.97212703  0.49881415  0.95524377     0.11300
H774        H  0.00869054  0.61240038  0.01943238     0.11300
C775        C  0.11661255  0.36646674  0.09532332    -0.14800
C776        C  0.15414983  0.36906500  0.08700561     0.07300
C777        C  0.18112585  0.36470430  0.10954364    -0.14800
C778        C  0.17070417  0.36497286  0.14007311    -0.14800
C779        C  0.13322062  0.36878027  0.14840759     0.07300
C780        C  0.10618911  0.36592667  0.12583831    -0.14800
H781        H  0.09529947  0.37012589  0.07823368     0.11300
H782        H  0.21015114  0.36734824  0.10377567     0.11300
H783        H  0.19206550  0.36755117  0.15719395     0.11300
H784        H  0.07722039  0.36958257  0.13162450     0.11300
C785        C  0.35648598  0.19774165  0.87548655    -0.14800
C786        C  0.38280446  0.19297974  0.89850256     0.07300
C787        C  0.42058324  0.19517990  0.89087904    -0.14800
C788        C  0.43185570  0.19588407  0.86056436    -0.14800
C789        C  0.40543828  0.19367394  0.83748930     0.07300
C790        C  0.36775289  0.19769623  0.84515968    -0.14800
H791        H  0.32729943  0.19531262  0.88070812     0.11300
H792        H  0.44139927  0.19111175  0.90834395     0.11300
H793        H  0.46094528  0.19193723  0.85529701     0.11300
H794        H  0.34685194  0.19548605  0.82763976     0.11300
C795        C  0.54285685  0.04821739  0.01295308    -0.14800
C796        C  0.54750986  0.99998609  0.99981966     0.07300
C797        C  0.52073005  0.98130190  0.97978188    -0.14800
C798        C  0.49016108  0.01080306  0.97255624    -0.14800
C799        C  0.48563176  0.05915607  0.98558163     0.07300
C800        C  0.51236471  0.07774613  0.00567210    -0.14800
H801        H  0.56344013  0.06400264  0.02805052     0.11300
H802        H  0.52393655  0.94458966  0.96893993     0.11300
H803        H  0.46954933  0.99506661  0.95747529     0.11300
H804        H  0.50923684  0.11452213  0.01646756     0.11300
C805        C  0.68078764  0.86604113  0.10874639    -0.14800
C806        C  0.65371367  0.86903182  0.08621108     0.07300
C807        C  0.61623034  0.86584750  0.09464114    -0.14800
C808        C  0.60589107  0.86574540  0.12519019    -0.14800
C809        C  0.63293772  0.86963548  0.14770026     0.07300
C810        C  0.67044492  0.86676326  0.13929315    -0.14800
H811        H  0.70975114  0.86933680  0.10290271     0.11300
H812        H  0.59483092  0.86864933  0.07756623     0.11300
H813        H  0.57689829  0.86873185  0.13101076     0.11300
H814        H  0.69182521  0.87020061  0.15634751     0.11300
C815        C  0.26564211  0.98363899  0.75649433    -0.14800
C816        C  0.24015266  0.00039195  0.73478487     0.07300
C817        C  0.24526384  0.04781049  0.72079279    -0.14800
C818        C  0.27505309  0.07827425  0.72868621    -0.14800
C819        C  0.30063321  0.06140892  0.75028914     0.07300
C820        C  0.29547562  0.01406498  0.76434660    -0.14800
H821        H  0.26196029  0.94771806  0.76811834     0.11300
H822        H  0.22558588  0.06217672  0.70444401     0.11300
H823        H  0.27870357  0.11422119  0.71708506     0.11300
H824        H  0.31517653  0.99970060  0.78068437     0.11300
C825        C  0.17039937  0.86405123  0.63972812    -0.14800
C826        C  0.13298051  0.86804950  0.64821910     0.07300
C827        C  0.10580847  0.86537175  0.62574902    -0.14800
C828        C  0.11606269  0.86581031  0.59518572    -0.14800
C829        C  0.15356696  0.86816713  0.58672081     0.07300
C830        C  0.18064681  0.86371200  0.60916339    -0.14800
H831        H  0.19187282  0.86653636  0.65676179     0.11300
H832        H  0.07688912  0.86921881  0.63164808     0.11300
H833        H  0.09466489  0.86959561  0.57817642     0.11300
H834        H  0.20964553  0.86621696  0.60329132     0.11300
C835        C  0.79554461  0.01310703  0.26134468    -0.14800
C836        C  0.80046538  0.06061693  0.24740670     0.07300
C837        C  0.77423941  0.07798990  0.22647323    -0.14800
C838        C  0.74362047  0.04833770  0.21960150    -0.14800
C839        C  0.73846847  0.00113798  0.23385862     0.07300
C840        C  0.76495316  0.98345321  0.25446293    -0.14800
H841        H  0.81579634  0.99821080  0.27704837     0.11300
H842        H  0.77776528  0.11395703  0.21486706     0.11300
H843        H  0.72332144  0.06325969  0.20395357     0.11300
H844        H  0.76142104  0.94752163  0.26610990     0.11300
C845        C  0.04453629  0.05077639  0.51222665    -0.14800
C846        C  0.04877830  0.00173969  0.50007099     0.07300
C847        C  0.02150141  0.98200255  0.48087084    -0.14800
C848        C  0.99082891  0.01116734  0.47350139    -0.14800
C849        C  0.98666285  0.06029630  0.48554374     0.07300
C850        C  0.01388503  0.07997630  0.50482147    -0.14800
H851        H  0.06551513  0.06736295  0.52663459     0.11300
H852        H  0.02434773  0.94459989  0.47081830     0.11300
H853        H  0.96985005  0.99456783  0.45909492     0.11300
H854        H  0.01104760  0.11738563  0.51485918     0.11300
C855        C  0.92034544  0.19406151  0.38972254    -0.14800
C856        C  0.88269046  0.19189458  0.39776509     0.07300
C857        C  0.85604251  0.19621685  0.37495044    -0.14800
C858        C  0.86687136  0.19600119  0.34448599    -0.14800
C859        C  0.90446440  0.19238169  0.33642421     0.07300
C860        C  0.93117595  0.19472868  0.35928092    -0.14800
H861        H  0.94143459  0.19026482  0.40698930     0.11300
H862        H  0.82693778  0.19374045  0.38046435     0.11300
H863        H  0.84572890  0.19366387  0.32717209     0.11300
H864        H  0.96021529  0.19108069  0.35373944     0.11300
C865        C  0.97173516  0.70243541  0.60279908    -0.14800
C866        C  0.96779777  0.65738591  0.58571871     0.07300
C867        C  0.97133477  0.61046022  0.60031375    -0.14800
C868        C  0.97210750  0.60870206  0.63189917    -0.14800
C869        C  0.96906033  0.65379611  0.64908016     0.07300
C870        C  0.97224034  0.70067868  0.63438367    -0.14800
H871        H  0.96982909  0.73925607  0.59190622     0.11300
H872        H  0.96871312  0.57526960  0.58773833     0.11300
H873        H  0.97045139  0.57189023  0.64283249     0.11300
H874        H  0.97027854  0.73590533  0.64700932     0.11300
C875        C  0.03664140  0.76898720  0.44526847    -0.14800
C876        C  0.02953864  0.73410839  0.46867360     0.07300
C877        C  0.05635806  0.72850818  0.49156361    -0.14800
C878        C  0.08844184  0.75885964  0.49180167    -0.14800
C879        C  0.09467414  0.79531156  0.46902330     0.07300
C880        C  0.06869509  0.79892131  0.44538335    -0.14800
H881        H  0.01676045  0.77444629  0.42725656     0.11300
H882        H  0.05175381  0.70232778  0.51007451     0.11300
H883        H  0.10764678  0.75512982  0.51045226     0.11300
H884        H  0.07234373  0.82648663  0.42744546     0.11300
C885        C  0.92881409  0.88881101  0.52099993    -0.14800
C886        C  0.89954128  0.85422318  0.51975436     0.07300
C887        C  0.86295451  0.87239129  0.51982997    -0.14800
C888        C  0.85575855  0.92454224  0.51879454    -0.14800
C889        C  0.88507283  0.95915782  0.51907445     0.07300
C890        C  0.92156882  0.94096919  0.52137829    -0.14800
H891        H  0.95713388  0.87554591  0.52082237     0.11300
H892        H  0.83993377  0.84616683  0.51870794     0.11300
H893        H  0.82752058  0.93775272  0.51694328     0.11300
H894        H  0.94467162  0.96712723  0.52146283     0.11300
C895        C  0.83823559  0.50880231  0.49334670    -0.14800
C896        C  0.84427945  0.54540512  0.51610606     0.07300
C897        C  0.81814906  0.54900328  0.53962879    -0.14800
C898        C  0.78615108  0.51893181  0.53964243    -0.14800
C899        C  0.77922262  0.48391022  0.51624488     0.07300
C900        C  0.80619695  0.47832070  0.49347511    -0.14800
H901        H  0.85757681  0.50502168  0.47479379     0.11300
H902        H  0.82163258  0.57667439  0.55755161     0.11300
H903        H  0.76617166  0.52440834  0.55757700     0.11300
H904        H  0.80177609  0.45200152  0.47499302     0.11300
C905        C  0.81508303  0.61155847  0.13398158    -0.14800
C906        C  0.81904135  0.65839841  0.14863095     0.07300
C907        C  0.81547233  0.70354750  0.13161754    -0.14800
C908        C  0.81512513  0.70186695  0.10004374    -0.14800
C909        C  0.81805119  0.65496203  0.08531966     0.07300
C910        C  0.81443818  0.60988206  0.10239392    -0.14800
H911        H  0.81736147  0.57629849  0.14651549     0.11300
H912        H  0.81762094  0.74032260  0.14256190     0.11300
H913        H  0.81748751  0.73708016  0.08747602     0.11300
H914        H  0.81587680  0.57308986  0.09139916     0.11300
C915        C  0.73051882  0.72983619  0.24198873    -0.14800
C916        C  0.75683257  0.73436233  0.26534672     0.07300
C917        C  0.74917491  0.76791357  0.28932246    -0.14800
C918        C  0.71708431  0.79774670  0.28933167    -0.14800
C919        C  0.69167131  0.79535541  0.26524321     0.07300
C920        C  0.69839964  0.76009678  0.24188004    -0.14800
H921        H  0.73558323  0.70467355  0.22305163     0.11300
H922        H  0.76866513  0.77243250  0.30771342     0.11300
H923        H  0.71299532  0.82435218  0.30773218     0.11300
H924        H  0.67962458  0.75735766  0.22287796     0.11300
C925        C  0.92389717  0.87294266  0.21390772    -0.14800
C926        C  0.88727411  0.85494616  0.21475857     0.07300
C927        C  0.85806176  0.88970368  0.21425142    -0.14800
C928        C  0.86541584  0.94181287  0.21377807    -0.14800
C929        C  0.90200854  0.95980488  0.21523958     0.07300
C930        C  0.93124863  0.92506352  0.21487536    -0.14800
H931        H  0.94688686  0.84661391  0.21442900     0.11300
H932        H  0.82972041  0.87660209  0.21503586     0.11300
H933        H  0.84238972  0.96810900  0.21421683     0.11300
H934        H  0.95955856  0.93815409  0.21609327     0.11300
C935        C  0.85569408  0.62038641  0.35852953    -0.14800
C936        C  0.88310374  0.62380101  0.33628874     0.07300
C937        C  0.92046537  0.62107828  0.34509582    -0.14800
C938        C  0.93032428  0.62041944  0.37574508    -0.14800
C939        C  0.90292212  0.62347063  0.39800620     0.07300
C940        C  0.86555632  0.62073563  0.38919087    -0.14800
H941        H  0.82680135  0.62331471  0.35237897     0.11300
H942        H  0.94210776  0.62419594  0.32825585     0.11300
H943        H  0.95921826  0.62338111  0.38190280     0.11300
H944        H  0.84391346  0.62361254  0.40604901     0.11300
C945        C  0.96828874  0.54915080  0.19488522    -0.14800
C946        C  0.94244943  0.54619000  0.21864644     0.07300
C947        C  0.94879455  0.51029619  0.24172166    -0.14800
C948        C  0.98081613  0.47978867  0.24160123    -0.14800
C949        C  0.00745683  0.48464849  0.21852105     0.07300
C950        C  0.00027381  0.51905075  0.19487779    -0.14800
H951        H  0.96456426  0.57629084  0.17673234     0.11300
H952        H  0.92970252  0.50708054  0.26047611     0.11300
H953        H  0.98547987  0.45399799  0.26029459     0.11300
H954        H  0.02001988  0.52396688  0.17671990     0.11300
C955        C  0.22013868  0.95145574  0.35042545    -0.14800
C956        C  0.21716892  0.90454813  0.33568841     0.07300
C957        C  0.22019008  0.85947043  0.35284239    -0.14800
C958        C  0.21966706  0.86125276  0.38443443    -0.14800
C959        C  0.21626518  0.90817544  0.39910550     0.07300
C960        C  0.21973992  0.95323910  0.38201244    -0.14800
H961        H  0.21809850  0.98666787  0.33781362     0.11300
H962        H  0.21858276  0.82266073  0.34188519     0.11300
H963        H  0.21731590  0.82604697  0.39700906     0.11300
H964        H  0.21784172  0.99005567  0.39293224     0.11300
C965        C  0.09034190  0.05435699  0.24214166    -0.14800
C966        C  0.09681844  0.01830186  0.26510717     0.07300
C967        C  0.07109293  0.01516244  0.28894285    -0.14800
C968        C  0.03909107  0.04521965  0.28913437    -0.14800
C969        C  0.03176700  0.07980733  0.26562352     0.07300
C970        C  0.05829201  0.08484637  0.24245412    -0.14800
H971        H  0.10931832  0.05767855  0.22332171     0.11300
H972        H  0.07491450  0.98789814  0.30702188     0.11300
H973        H  0.01943780  0.04015131  0.30734685     0.11300
H974        H  0.05350054  0.11074357  0.22383573     0.11300
C975        C  0.02389872  0.83125767  0.25339994    -0.14800
C976        C  0.05061594  0.81272914  0.23326110     0.07300
C977        C  0.04571429  0.76485398  0.21973388    -0.14800
C978        C  0.01499735  0.73552139  0.22673960    -0.14800
C979        C  0.98845278  0.75384548  0.24710478     0.07300
C980        C  0.99323598  0.80188607  0.26045157    -0.14800
H981        H  0.02725661  0.86770541  0.26451592     0.11300
H982        H  0.06622910  0.74923936  0.20451855     0.11300
H983        H  0.01163080  0.69904782  0.21564325     0.11300
H984        H  0.97277253  0.81747181  0.27572994     0.11300
C985        C  0.28936851  0.79469679  0.19484179    -0.14800
C986        C  0.28250731  0.83021385  0.21797467     0.07300
C987        C  0.30942182  0.83627708  0.24073645    -0.14800
C988        C  0.34137163  0.80570672  0.24114258    -0.14800
C989        C  0.34729636  0.76858147  0.21868077     0.07300
C990        C  0.32125655  0.76451619  0.19513839    -0.14800
H991        H  0.26939841  0.78887995  0.17693047     0.11300
H992        H  0.30499398  0.86299225  0.25901956     0.11300
H993        H  0.36068480  0.80978217  0.25969377     0.11300
H994        H  0.32470844  0.73642175  0.17745351     0.11300
C995        C  0.18130042  0.67514208  0.26740924    -0.14800
C996        C  0.15187379  0.70954386  0.26689741     0.07300
C997        C  0.11534997  0.69124162  0.26805750    -0.14800
C998        C  0.10829753  0.63906952  0.26755149    -0.14800
C999        C  0.13774077  0.60467318  0.26722202     0.07300
C1000       C  0.17424757  0.62300385  0.26826170    -0.14800
H1001       H  0.20955794  0.68853006  0.26640584     0.11300
H1002       H  0.09220015  0.71731322  0.26743417     0.11300
H1003       H  0.08004920  0.62564911  0.26660468     0.11300
H1004       H  0.19739938  0.59692763  0.26783666     0.11300
C1005       C  0.06867572  0.95585800  0.88462092    -0.14800
C1006       C  0.06863446  0.90868238  0.89922910     0.07300
C1007       C  0.06376492  0.86415474  0.88184991    -0.14800
C1008       C  0.06571554  0.86602631  0.85030312    -0.14800
C1009       C  0.07229156  0.91253129  0.83591975     0.07300
C1010       C  0.07048902  0.95775877  0.85307299    -0.14800
H1011       H  0.07221136  0.99067801  0.89741424     0.11300
H1012       H  0.06307473  0.82723016  0.89271766     0.11300
H1013       H  0.06658882  0.83073882  0.83766187     0.11300
H1014       H  0.07470325  0.99435482  0.84236247     0.11300
C1015       C  0.99765777  0.79449305  0.03974112    -0.14800
C1016       C  0.00463521  0.82969770  0.01650824     0.07300
C1017       C  0.97803197  0.83507034  0.99343022    -0.14800
C1018       C  0.94619273  0.80426836  0.99292443    -0.14800
C1019       C  0.94006553  0.76763128  0.01560855     0.07300
C1020       C  0.96588438  0.76412858  0.03935414    -0.14800
H1021       H  0.01741967  0.78914982  0.05785501     0.11300
H1022       H  0.98261312  0.86145697  0.97502478     0.11300
H1023       H  0.92709241  0.80786069  0.97419321     0.11300
H1024       H  0.96231368  0.73638369  0.05720659     0.11300
C1025       C  0.16936747  0.69056319  0.96428434    -0.14800
C1026       C  0.13275261  0.70831051  0.96658434     0.07300
C1027       C  0.10372679  0.67327927  0.96770721    -0.14800
C1028       C  0.11134966  0.62120157  0.96732013    -0.14800
C1029       C  0.14809381  0.60359783  0.96723136     0.07300
C1030       C  0.17704786  0.63856179  0.96529670    -0.14800
H1031       H  0.19227377  0.71704934  0.96367851     0.11300
H1032       H  0.07541631  0.68613937  0.96964893     0.11300
H1033       H  0.08857622  0.59466014  0.96891546     0.11300
H1034       H  0.20547978  0.62572663  0.96530468     0.11300
C1035       C  0.11852763  0.94858663  0.13985531    -0.14800
C1036       C  0.15616750  0.94421072  0.14760302     0.07300
C1037       C  0.18262302  0.94518668  0.12453980    -0.14800
C1038       C  0.17137672  0.94370429  0.09422805    -0.14800
C1039       C  0.13359058  0.94200669  0.08658632     0.07300
C1040       C  0.10729152  0.94788352  0.10952140    -0.14800
H1041       H  0.09759910  0.94721152  0.15737249     0.11300
H1042       H  0.21166476  0.94085306  0.12988248     0.11300
H1043       H  0.19217205  0.93884246  0.07682589     0.11300
H1044       H  0.07808481  0.94590768  0.10428237     0.11300
C1045       C  0.21550300  0.01421757  0.94553154    -0.14800
C1046       C  0.19015346  0.01693167  0.96963814     0.07300
C1047       C  0.19673452  0.05280597  0.99269443    -0.14800
C1048       C  0.22855675  0.08360889  0.99218281    -0.14800
C1049       C  0.25470724  0.07903302  0.96871607     0.07300
C1050       C  0.24728488  0.04460890  0.94513275    -0.14800
H1051       H  0.21154907  0.98708586  0.92738306     0.11300
H1052       H  0.17801016  0.05578524  0.01170759     0.11300
H1053       H  0.23349065  0.10935812  0.01086030     0.11300
H1054       H  0.26670609  0.03991421  0.92671129     0.11300
C1055       C  0.31659528  0.70263754  0.63190017    -0.14800
C1056       C  0.32021521  0.65754200  0.64894958     0.07300
C1057       C  0.31703358  0.61064802  0.63421841    -0.14800
C1058       C  0.31675296  0.60895971  0.60262549    -0.14800
C1059       C  0.31980003  0.65410354  0.58554840     0.07300
C1060       C  0.31646320  0.70095243  0.60031006    -0.14800
H1061       H  0.31829178  0.73942907  0.64287182     0.11300
H1062       H  0.31946604  0.57541907  0.64676241     0.11300
H1063       H  0.31857129  0.57218848  0.59163975     0.11300
H1064       H  0.31844769  0.73621910  0.58775222     0.11300
C1065       C  0.46868360  0.54929339  0.69539131    -0.14800
C1066       C  0.44239681  0.54504025  0.71874051     0.07300
C1067       C  0.44839566  0.50812077  0.74129766    -0.14800
C1068       C  0.48051172  0.47781841  0.74109499    -0.14800
C1069       C  0.50756605  0.48391304  0.71844727     0.07300
C1070       C  0.50074841  0.51939755  0.69530550    -0.14800
H1071       H  0.46524092  0.57728542  0.67765599     0.11300
H1072       H  0.42894821  0.50392021  0.75973105     0.11300
H1073       H  0.48488737  0.45115933  0.75940208     0.11300
H1074       H  0.52082182  0.52528961  0.67749648     0.11300
C1075       C  0.24946635  0.76611866  0.79051000    -0.14800
C1076       C  0.25676935  0.73206671  0.76670783     0.07300
C1077       C  0.23041729  0.72766996  0.74337891    -0.14800
C1078       C  0.19864576  0.75857971  0.74307778    -0.14800
C1079       C  0.19232477  0.79437201  0.76621170     0.07300
C1080       C  0.21773334  0.79663920  0.79031232    -0.14800
H1081       H  0.26900295  0.77057998  0.80886573     0.11300
H1082       H  0.23522624  0.70212955  0.72457518     0.11300
H1083       H  0.17984147  0.75591565  0.72408701     0.11300
H1084       H  0.21393442  0.82363261  0.80854875     0.11300
C1085       C  0.35737284  0.88821286  0.71674322    -0.14800
C1086       C  0.38665183  0.85353749  0.71752179     0.07300
C1087       C  0.42323846  0.87165678  0.71714827    -0.14800
C1088       C  0.43048187  0.92377996  0.71809371    -0.14800
C1089       C  0.40121800  0.95848589  0.71805891     0.07300
C1090       C  0.36465321  0.94039274  0.71633401    -0.14800
H1091       H  0.32905333  0.87500435  0.71720212     0.11300
H1092       H  0.44627419  0.84540719  0.71799024     0.11300
H1093       H  0.45876990  0.93692738  0.71956455     0.11300
H1094       H  0.34160232  0.96664270  0.71653834     0.11300
C1095       C  0.47072344  0.61063781  0.10070368    -0.14800
C1096       C  0.46776205  0.65751792  0.08595493     0.07300
C1097       C  0.47157138  0.70262467  0.10298985    -0.14800
C1098       C  0.47170525  0.70104061  0.13458300    -0.14800
C1099       C  0.46820209  0.65427253  0.14936615     0.07300
C1100       C  0.47105506  0.60904543  0.13229579    -0.14800
H1101       H  0.46811107  0.57539565  0.08817826     0.11300
H1102       H  0.47001689  0.73940309  0.09199839     0.11300
H1103       H  0.46985071  0.73635773  0.14712696     0.11300
H1104       H  0.46909970  0.57232160  0.14328655     0.11300
C1105       C  0.31986822  0.54818933  0.04028374    -0.14800
C1106       C  0.34579608  0.54446661  0.01663019     0.07300
C1107       C  0.33950396  0.50802732  0.99383845    -0.14800
C1108       C  0.30736530  0.47782464  0.99405657    -0.14800
C1109       C  0.28056265  0.48358786  0.01693620     0.07300
C1110       C  0.28775030  0.51841405  0.04037207    -0.14800
H1111       H  0.32358230  0.57576435  0.05822549     0.11300
H1112       H  0.35868789  0.50421632  0.97518983     0.11300
H1113       H  0.30270669  0.45164912  0.97553802     0.11300
H1114       H  0.26788646  0.52396375  0.05838427     0.11300
C1115       C  0.24024944  0.76015779  0.01247099    -0.14800
C1116       C  0.23540248  0.80796123  0.99883915     0.07300
C1117       C  0.26223288  0.82632945  0.97877874    -0.14800
C1118       C  0.29319735  0.79721596  0.97221451    -0.14800
C1119       C  0.29820558  0.74957574  0.98598278     0.07300
C1120       C  0.27133646  0.73110396  0.00600196    -0.14800
H1121       H  0.21959110  0.74458884  0.02755378     0.11300
H1122       H  0.25888672  0.86264338  0.96751851     0.11300
H1123       H  0.31380375  0.81285231  0.95709851     0.11300
H1124       H  0.27478930  0.69486190  0.01731540     0.11300
C1125       C  0.36644990  0.61550372  0.88979342    -0.14800
C1126       C  0.40390796  0.61874461  0.89830164     0.07300
C1127       C  0.43104258  0.61557378  0.87582607    -0.14800
C1128       C  0.42079251  0.61610351  0.84525312    -0.14800
C1129       C  0.38331558  0.61889022  0.83675538     0.07300
C1130       C  0.35620244  0.61513962  0.85921480    -0.14800
H1131       H  0.34500275  0.61835968  0.90681668     0.11300
H1132       H  0.45999839  0.61882721  0.88173007     0.11300
H1133       H  0.44221924  0.61941175  0.82824040     0.11300
H1134       H  0.32722387  0.61803889  0.85331832     0.11300
C1135       C  0.55672721  0.72832911  0.99112199    -0.14800
C1136       C  0.53003616  0.73321357  0.96808101     0.07300
C1137       C  0.53708425  0.76765202  0.94444170    -0.14800
C1138       C  0.56899532  0.79786234  0.94446128    -0.14800
C1139       C  0.59484249  0.79492163  0.96822984     0.07300
C1140       C  0.58865309  0.75892692  0.99125421    -0.14800
H1141       H  0.55214087  0.70251479  0.00981014     0.11300
H1142       H  0.51727380  0.77254851  0.92632216     0.11300
H1143       H  0.57263420  0.82509509  0.92634716     0.11300
H1144       H  0.60776014  0.75575877  0.01001420     0.11300
C1145       C  0.42840641  0.88825858  0.01854533    -0.14800
C1146       C  0.39933342  0.85332883  0.01779672     0.07300
C1147       C  0.36263310  0.87107118  0.01844955    -0.14800
C1148       C  0.35508251  0.92315543  0.01769304    -0.14800
C1149       C  0.38418425  0.95810280  0.01772065     0.07300
C1150       C  0.42083904  0.94030962  0.01923441    -0.14800
H1151       H  0.45680251  0.87534021  0.01792443     0.11300
H1152       H  0.33975822  0.84457623  0.01771051     0.11300
H1153       H  0.32672518  0.93607312  0.01639976     0.11300
H1154       H  0.44376586  0.96675031  0.01911357     0.11300
C1155       C  0.56695254  0.95186616  0.38454486    -0.14800
C1156       C  0.56979927  0.90493794  0.39925532     0.07300
C1157       C  0.56679388  0.85990089  0.38201632    -0.14800
C1158       C  0.56741305  0.86172380  0.35041244    -0.14800
C1159       C  0.57086420  0.90865129  0.33577681     0.07300
C1160       C  0.56743740  0.95368778  0.35294500    -0.14800
H1161       H  0.56899441  0.98705702  0.39719817     0.11300
H1162       H  0.56831044  0.82306689  0.39292471     0.11300
H1163       H  0.56973636  0.82652960  0.33780193     0.11300
H1164       H  0.56938550  0.99052094  0.34207049     0.11300
C1165       C  0.69659996  0.05456728  0.49235393    -0.14800
C1166       C  0.69013860  0.01823598  0.46951896     0.07300
C1167       C  0.71577121  0.01490586  0.44563330    -0.14800
C1168       C  0.74773972  0.04495849  0.44531438    -0.14800
C1169       C  0.75511521  0.07969362  0.46875305     0.07300
C1170       C  0.72862786  0.08504350  0.49192088    -0.14800
H1171       H  0.67765513  0.05807283  0.51119034     0.11300
H1172       H  0.71192453  0.98746114  0.42763568     0.11300
H1173       H  0.76735959  0.03970312  0.42708882     0.11300
H1174       H  0.73345841  0.11110188  0.51046092     0.11300
C1175       C  0.76213633  0.82928057  0.48000708    -0.14800
C1176       C  0.73611402  0.81204242  0.50112699     0.07300
C1177       C  0.74146114  0.76504949  0.51555250    -0.14800
C1178       C  0.77205227  0.73540683  0.50860983    -0.14800
C1179       C  0.79800305  0.75258675  0.48740558     0.07300
C1180       C  0.79265930  0.79960650  0.47301988    -0.14800
H1181       H  0.75836008  0.86495613  0.46813457     0.11300
H1182       H  0.72143492  0.75041842  0.53151484     0.11300
H1183       H  0.77587136  0.69973354  0.52047901     0.11300
H1184       H  0.81263122  0.81423546  0.45700452     0.11300
C1185       C  0.47813086  0.83597467  0.49401123    -0.14800
C1186       C  0.50467220  0.83067743  0.51712635     0.07300
C1187       C  0.49755341  0.79571981  0.54048108    -0.14800
C1188       C  0.46577784  0.76531289  0.54006901    -0.14800
C1189       C  0.44012722  0.76860112  0.51619304     0.07300
C1190       C  0.44630668  0.80519759  0.49349867    -0.14800
H1191       H  0.48278104  0.86222260  0.47554527     0.11300
H1192       H  0.51724683  0.79050832  0.55865721     0.11300
H1193       H  0.46210923  0.73765196  0.55795384     0.11300
H1194       H  0.42730881  0.80867003  0.47468531     0.11300
C1195       C  0.60506560  0.67498183  0.46713159    -0.14800
C1196       C  0.63451658  0.70930278  0.46840178     0.07300
C1197       C  0.67101899  0.69086503  0.46796714    -0.14800
C1198       C  0.67799576  0.63867416  0.46828385    -0.14800
C1199       C  0.64855121  0.60429371  0.46771860     0.07300
C1200       C  0.61208816  0.62277731  0.46609945    -0.14800
H1201       H  0.57680962  0.68847205  0.46760204     0.11300
H1202       H  0.69417753  0.71685772  0.46918888     0.11300
H1203       H  0.70620864  0.62519726  0.46972936     0.11300
H1204       H  0.58890762  0.59675997  0.46589850     0.11300
C1205       C  0.72426618  0.86305019  0.85281243    -0.14800
C1206       C  0.71960456  0.90773263  0.83556581     0.07300
C1207       C  0.72023294  0.95486326  0.85023711    -0.14800
C1208       C  0.71877611  0.95666748  0.88179154    -0.14800
C1209       C  0.71655477  0.91139136  0.89884083     0.07300
C1210       C  0.72256722  0.86482378  0.88435572    -0.14800
H1211       H  0.72449573  0.82615400  0.84187278     0.11300
H1212       H  0.71690464  0.98978525  0.83753714     0.11300
H1213       H  0.71499855  0.99329906  0.89260199     0.11300
H1214       H  0.72136177  0.82949806  0.89692679     0.11300
C1215       C  0.80926647  0.83464078  0.74075998    -0.14800
C1216       C  0.78215133  0.82852706  0.71814864     0.07300
C1217       C  0.78874880  0.79266868  0.69514626    -0.14800
C1218       C  0.82067369  0.76248781  0.69531516    -0.14800
C1219       C  0.84703182  0.76682048  0.71861585     0.07300
C1220       C  0.84123703  0.80404957  0.74104966    -0.14800
H1221       H  0.80503946  0.86153420  0.75897608     0.11300
H1222       H  0.76860130  0.78670743  0.67738957     0.11300
H1223       H  0.82394899  0.73423915  0.67769083     0.11300
H1224       H  0.86074213  0.80830966  0.75945069     0.11300
C1225       C  0.68316251  0.67326045  0.76801741    -0.14800
C1226       C  0.65399017  0.70810116  0.76876488     0.07300
C1227       C  0.61740701  0.69014530  0.77060936    -0.14800
C1228       C  0.60994129  0.63808246  0.76944692    -0.14800
C1229       C  0.63907263  0.60330187  0.76784443     0.07300
C1230       C  0.67574155  0.62114579  0.76826916    -0.14800
H1231       H  0.71145754  0.68630752  0.76643078     0.11300
H1232       H  0.59441487  0.71651461  0.77095279     0.11300
H1233       H  0.58157004  0.62506839  0.76905704     0.11300
H1234       H  0.69865652  0.59477151  0.76693069     0.11300
C1235       C  0.52462884  0.82686786  0.75754444    -0.14800
C1236       C  0.55129703  0.80855334  0.73728512     0.07300
C1237       C  0.54635125  0.76082960  0.72358559    -0.14800
C1238       C  0.51533628  0.73181008  0.73012929    -0.14800
C1239       C  0.48851612  0.75031752  0.75018975     0.07300
C1240       C  0.49360952  0.79784400  0.76409141    -0.14800
H1241       H  0.52810150  0.86310243  0.76888938     0.11300
H1242       H  0.56689480  0.74526668  0.70837064     0.11300
H1243       H  0.51184193  0.69562024  0.71874053     0.11300
H1244       H  0.47303702  0.81343536  0.77926345     0.11300
C1245       C  0.67999318  0.94695701  0.62582722    -0.14800
C1246       C  0.65351311  0.94168806  0.64866495     0.07300
C1247       C  0.61579143  0.94408486  0.64089090    -0.14800
C1248       C  0.60473418  0.94570284  0.61052699    -0.14800
C1249       C  0.63130939  0.94410485  0.58755669     0.07300
C1250       C  0.66894426  0.94773580  0.59545541    -0.14800
H1251       H  0.70914581  0.94445788  0.63117841     0.11300
H1252       H  0.59486154  0.93970046  0.65822375     0.11300
H1253       H  0.57567661  0.94196335  0.60507386     0.11300
H1254       H  0.68996529  0.94590999  0.57802627     0.11300
C1255       C  0.59089455  0.05373984  0.74351869    -0.14800
C1256       C  0.59693138  0.01658762  0.76594120     0.07300
C1257       C  0.57084135  0.01241502  0.78944201    -0.14800
C1258       C  0.53894568  0.04263884  0.78983418    -0.14800
C1259       C  0.53208005  0.07839555  0.76685415     0.07300
C1260       C  0.55894355  0.08439770  0.74403643    -0.14800
H1261       H  0.61019788  0.05791814  0.72498300     0.11300
H1262       H  0.57431135  0.98427091  0.80708508     0.11300
H1263       H  0.51901406  0.03677498  0.80775851     0.11300
H1264       H  0.55451716  0.11123380  0.72583575     0.11300
C1265       C  0.06885788  0.45373535  0.38496787    -0.14800
C1266       C  0.07016116  0.40658489  0.39955312     0.07300
C1267       C  0.06592577  0.36185683  0.38224030    -0.14800
C1268       C  0.06689219  0.36384082  0.35065579    -0.14800
C1269       C  0.07195967  0.41062920  0.33618075     0.07300
C1270       C  0.06970833  0.45573253  0.35340894    -0.14800
H1271       H  0.07189066  0.48869424  0.39771377     0.11300
H1272       H  0.06630811  0.32492119  0.39310176     0.11300
H1273       H  0.06823590  0.32862492  0.33796978     0.11300
H1274       H  0.07282736  0.49250354  0.34265356     0.11300
C1275       C  0.97931898  0.33461497  0.49319357    -0.14800
C1276       C  0.00545724  0.32994762  0.51669022     0.07300
C1277       C  0.99777641  0.29582960  0.54034667    -0.14800
C1278       C  0.96585178  0.26567886  0.53992903    -0.14800
C1279       C  0.94060698  0.26827244  0.51571432     0.07300
C1280       C  0.94736056  0.30402518  0.49265312    -0.14800
H1281       H  0.98439754  0.36020149  0.47448067     0.11300
H1282       H  0.01712547  0.29113227  0.55882366     0.11300
H1283       H  0.96175566  0.23870971  0.55812070     0.11300
H1284       H  0.92872094  0.30696409  0.47357488     0.11300
C1285       C  0.17227593  0.19085857  0.46697395    -0.14800
C1286       C  0.13566780  0.20893551  0.46783611     0.07300
C1287       C  0.10641534  0.17426236  0.46734618    -0.14800
C1288       C  0.11372967  0.12214256  0.46669833    -0.14800
C1289       C  0.15030996  0.10405324  0.46800992     0.07300
C1290       C  0.17957633  0.13872318  0.46776548    -0.14800
H1291       H  0.19530107  0.21713044  0.46757337     0.11300
H1292       H  0.07809038  0.18743114  0.46813919     0.11300
H1293       H  0.09070023  0.09589467  0.46696743     0.11300
H1294       H  0.20788230  0.12554997  0.46889050     0.11300
C1295       C  0.21631976  0.51478131  0.44566407    -0.14800
C1296       C  0.19067999  0.51817845  0.46954040     0.07300
C1297       C  0.19693762  0.55487824  0.49219861    -0.14800
C1298       C  0.22876734  0.58572418  0.49157585    -0.14800
C1299       C  0.25524648  0.58038844  0.46839070     0.07300
C1300       C  0.24808528  0.54520687  0.44515514    -0.14800
H1301       H  0.21263197  0.48703453  0.42780613     0.11300
H1302       H  0.17797676  0.55844946  0.51101584     0.11300
H1303       H  0.23344081  0.61212397  0.50997692     0.11300
H1304       H  0.26771722  0.53990901  0.42694227     0.11300
C1305       C  0.22171571  0.45242955  0.85108783    -0.14800
C1306       C  0.21910256  0.40556151  0.83627197     0.07300
C1307       C  0.22255313  0.36044673  0.85335230    -0.14800
C1308       C  0.22163936  0.36203389  0.88493621    -0.14800
C1309       C  0.21759545  0.40881553  0.89964805     0.07300
C1310       C  0.22103192  0.45402220  0.88267901    -0.14800
H1311       H  0.21940531  0.48767070  0.83853400     0.11300
H1312       H  0.22131700  0.32366600  0.84232734     0.11300
H1313       H  0.21941306  0.32672633  0.89742026     0.11300
H1314       H  0.21871851  0.49074845  0.89366073     0.11300
C1315       C  0.07131118  0.51440551  0.79021637    -0.14800
C1316       C  0.09707227  0.51759445  0.76641763     0.07300
C1317       C  0.09078412  0.55381130  0.74352134    -0.14800
C1318       C  0.05880537  0.58433798  0.74379834    -0.14800
C1319       C  0.03218358  0.57915277  0.76686000     0.07300
C1320       C  0.03935949  0.54452564  0.79037574    -0.14800
H1321       H  0.07503904  0.48702470  0.80824603     0.11300
H1322       H  0.10983934  0.55720370  0.72475712     0.11300
H1323       H  0.05412249  0.61031915  0.72520538     0.11300
H1324       H  0.01960997  0.53940503  0.80851042     0.11300
C1325       C  0.30873626  0.33456334  0.74249837    -0.14800
C1326       C  0.28255104  0.33002092  0.71903297     0.07300
C1327       C  0.29011144  0.29587040  0.69533919    -0.14800
C1328       C  0.32198269  0.26557823  0.69569284    -0.14800
C1329       C  0.34728626  0.26809242  0.71986784     0.07300
C1330       C  0.34063624  0.30385488  0.74296804    -0.14800
H1331       H  0.30374089  0.36015439  0.76124366     0.11300
H1332       H  0.27070849  0.29124822  0.67689692     0.11300
H1333       H  0.32599898  0.23858498  0.67748356     0.11300
H1334       H  0.35931741  0.30671853  0.76202447     0.11300
C1335       C  0.17715626  0.12254851  0.76782499    -0.14800
C1336       C  0.14064770  0.10412998  0.76752850     0.07300
C1337       C  0.11120709  0.13831740  0.76955467    -0.14800
C1338       C  0.11816686  0.19044883  0.77086787    -0.14800
C1339       C  0.15454338  0.20903951  0.76878825     0.07300
C1340       C  0.18406886  0.17477541  0.76775595    -0.14800
H1341       H  0.20028121  0.09659258  0.76623371     0.11300
H1342       H  0.08295476  0.12478809  0.76932083     0.11300
H1343       H  0.09491284  0.21637601  0.77143163     0.11300
H1344       H  0.21221318  0.18835598  0.76601180     0.11300
C1345       C  0.11718613  0.44570646  0.64073666    -0.14800
C1346       C  0.15483017  0.44258012  0.64868588     0.07300
C1347       C  0.18146584  0.44603957  0.62583402    -0.14800
C1348       C  0.17054212  0.44589801  0.59541428    -0.14800
C1349       C  0.13288176  0.44308800  0.58745171     0.07300
C1350       C  0.10626363  0.44641171  0.61032055    -0.14800
H1351       H  0.09611859  0.44257772  0.65806407     0.11300
H1352       H  0.21054878  0.44282609  0.63130239     0.11300
H1353       H  0.19159759  0.44282720  0.57807675     0.11300
H1354       H  0.07717021  0.44340185  0.60483706     0.11300
C1355       C  0.47018630  0.11169814  0.60079998    -0.14800
C1356       C  0.46637646  0.15860608  0.58620779     0.07300
C1357       C  0.46945237  0.20366858  0.60339829    -0.14800
C1358       C  0.46985737  0.20177141  0.63498681    -0.14800
C1359       C  0.46731995  0.15474788  0.64962805     0.07300
C1360       C  0.47073550  0.10980667  0.63238672    -0.14800
H1361       H  0.46816097  0.07649383  0.58815901     0.11300
H1362       H  0.46725087  0.24049789  0.59255658     0.11300
H1363       H  0.46749734  0.23688646  0.64766609     0.11300
H1364       H  0.46945514  0.07292432  0.64327646     0.11300
C1365       C  0.31899125  0.04846976  0.54015619    -0.14800
C1366       C  0.34503717  0.04483752  0.51658763     0.07300
C1367       C  0.33902949  0.00811255  0.49389558    -0.14800
C1368       C  0.30708404  0.97750515  0.49413261    -0.14800
C1369       C  0.28020281  0.98304958  0.51696463     0.07300
C1370       C  0.28708843  0.01822942  0.54029068    -0.14800
H1371       H  0.32246832  0.07626290  0.55801321     0.11300
H1372       H  0.35830108  0.00435699  0.47529796     0.11300
H1373       H  0.30266094  0.95110358  0.47568860     0.11300
H1374       H  0.26714962  0.02368979  0.55825017     0.11300
C1375       C  0.55637711  0.22790792  0.49146914    -0.14800
C1376       C  0.53001354  0.23224174  0.46813539     0.07300
C1377       C  0.53733770  0.26618134  0.44431083    -0.14800
C1378       C  0.56911757  0.29660829  0.44446637    -0.14800
C1379       C  0.59455091  0.29439338  0.46855438     0.07300
C1380       C  0.58819333  0.25872218  0.49172843    -0.14800
H1381       H  0.55157167  0.20243901  0.51029154     0.11300
H1382       H  0.51779730  0.27059424  0.42594952     0.11300
H1383       H  0.57293911  0.32350564  0.42619624     0.11300
H1384       H  0.60699957  0.25608711  0.51071403     0.11300
C1385       C  0.42950160  0.38871003  0.51671678    -0.14800
C1386       C  0.40019905  0.35408491  0.51636014     0.07300
C1387       C  0.36362691  0.37229619  0.51696442    -0.14800
C1388       C  0.35640848  0.42445190  0.51596085    -0.14800
C1389       C  0.38571051  0.45908339  0.51574687     0.07300
C1390       C  0.42226818  0.44088933  0.51711242    -0.14800
H1391       H  0.45780545  0.37544731  0.51606027     0.11300
H1392       H  0.34057524  0.34608362  0.51646298     0.11300
H1393       H  0.32811560  0.43767717  0.51476963     0.11300
H1394       H  0.44534328  0.46708217  0.51674741     0.11300
C1395       C  0.27284056  0.23414412  0.50706451    -0.14800
C1396       C  0.29869834  0.25123862  0.48574546     0.07300
C1397       C  0.29335740  0.29833119  0.47144532    -0.14800
C1398       C  0.26293705  0.32814276  0.47863577    -0.14800
C1399       C  0.23704340  0.31100902  0.49991154     0.07300
C1400       C  0.24240253  0.26393860  0.51423577    -0.14800
H1401       H  0.27663027  0.19841050  0.51886778     0.11300
H1402       H  0.31326893  0.31291367  0.45536494     0.11300
H1403       H  0.25914744  0.36388077  0.46682638     0.11300
H1404       H  0.22247956  0.24934797  0.53030651     0.11300
C1405       C  0.31584724  0.20224878  0.10038918    -0.14800
C1406       C  0.31841995  0.15524577  0.08571306     0.07300
C1407       C  0.31498689  0.11028506  0.10292334    -0.14800
C1408       C  0.31589655  0.11214607  0.13450089    -0.14800
C1409       C  0.31995658  0.15904780  0.14907413     0.07300
C1410       C  0.31654235  0.20411771  0.13197135    -0.14800
H1411       H  0.31813961  0.23738320  0.08772955     0.11300
H1412       H  0.31619448  0.07341250  0.09200538     0.11300
H1413       H  0.31809268  0.07693601  0.14709316     0.11300
H1414       H  0.31884706  0.24093326  0.14283733     0.11300
C1415       C  0.25008207  0.26854691  0.28974474    -0.14800
C1416       C  0.25745228  0.23442160  0.26600944     0.07300
C1417       C  0.23116764  0.22995259  0.24261992    -0.14800
C1418       C  0.19921004  0.26051687  0.24236833    -0.14800
C1419       C  0.19263986  0.29604116  0.26560777     0.07300
C1420       C  0.21817360  0.29870176  0.28960169    -0.14800
H1421       H  0.26960599  0.27314722  0.30810616     0.11300
H1422       H  0.23606732  0.20443618  0.22382636     0.11300
H1423       H  0.18037943  0.25766300  0.22341129     0.11300
H1424       H  0.21424856  0.32560624  0.30786993     0.11300
C1425       C  0.42440924  0.37269718  0.21737221    -0.14800
C1426       C  0.38781847  0.35456557  0.21739822     0.07300
C1427       C  0.35855156  0.38919463  0.21628824    -0.14800
C1428       C  0.36580741  0.44134363  0.21592774    -0.14800
C1429       C  0.40231268  0.45950064  0.21810964     0.07300
C1430       C  0.43161682  0.42484926  0.21843376    -0.14800
H1431       H  0.44741864  0.34644320  0.21838592     0.11300
H1432       H  0.33022877  0.37596259  0.21643178     0.11300
H1433       H  0.34272467  0.46753630  0.21579726     0.11300
H1434       H  0.45986509  0.43804406  0.22019644     0.11300
C1435       C  0.48021519  0.97890738  0.24124957    -0.14800
C1436       C  0.50666656  0.98381143  0.21804862     0.07300
C1437       C  0.49939544  0.01822918  0.19444201    -0.14800
C1438       C  0.46749690  0.04842787  0.19464150    -0.14800
C1439       C  0.44189299  0.04547827  0.21855831     0.07300
C1440       C  0.44828820  0.00949680  0.24155943    -0.14800
H1441       H  0.48499817  0.95309839  0.25991385     0.11300
H1442       H  0.51903189  0.02312996  0.17620257     0.11300
H1443       H  0.46367836  0.07564866  0.17654247     0.11300
H1444       H  0.42935007  0.00633085  0.26042209     0.11300
C1445       C  0.42108634  0.11706320  0.34510861    -0.14800
C1446       C  0.38361429  0.11972317  0.33656679     0.07300
C1447       C  0.35646773  0.11524710  0.35894807    -0.14800
C1448       C  0.36664332  0.11497435  0.38954285    -0.14800
C1449       C  0.40406637  0.11830863  0.39814683     0.07300
C1450       C  0.43126636  0.11592556  0.37569166    -0.14800
H1451       H  0.44254212  0.12089895  0.32816226     0.11300
H1452       H  0.32748822  0.11801770  0.35302588     0.11300
H1453       H  0.34514176  0.11732680  0.40655022     0.11300
H1454       H  0.46018832  0.11935772  0.38166829     0.11300
C1455       C  0.72144303  0.36205911  0.35230814    -0.14800
C1456       C  0.71736961  0.40691081  0.33510440     0.07300
C1457       C  0.71846808  0.45395204  0.34986203    -0.14800
C1458       C  0.71719988  0.45569356  0.38142462    -0.14800
C1459       C  0.71475642  0.41045042  0.39847509     0.07300
C1460       C  0.72003772  0.36378403  0.38388535    -0.14800
H1461       H  0.72122120  0.32519721  0.34132130     0.11300
H1462       H  0.71554037  0.48900036  0.33721361     0.11300
H1463       H  0.71391427  0.49237178  0.39228586     0.11300
H1464       H  0.71855905  0.32846713  0.39643790     0.11300
C1465       C  0.59064528  0.55567609  0.24305544    -0.14800
C1466       C  0.59678972  0.51873693  0.26556955     0.07300
C1467       C  0.57099661  0.51499383  0.28931091    -0.14800
C1468       C  0.53916543  0.54530907  0.28979494    -0.14800
C1469       C  0.53211450  0.58070001  0.26667214     0.07300
C1470       C  0.55875919  0.58640120  0.24365436    -0.14800
H1471       H  0.60973233  0.55951299  0.22434595     0.11300
H1472       H  0.57460618  0.48704497  0.30704952     0.11300
H1473       H  0.51939923  0.53974900  0.30787677     0.11300
H1474       H  0.55417939  0.61298195  0.22535447     0.11300
C1475       C  0.80852619  0.33645694  0.24005276    -0.14800
C1476       C  0.78165343  0.33052585  0.21721641     0.07300
C1477       C  0.78852687  0.29486203  0.19417055    -0.14800
C1478       C  0.82041959  0.26460086  0.19455701    -0.14800
C1479       C  0.84647635  0.26863339  0.21812375     0.07300
C1480       C  0.84045687  0.30576968  0.24056558    -0.14800
H1481       H  0.80410459  0.36323748  0.25829829     0.11300
H1482       H  0.76859432  0.28906455  0.17623140     0.11300
H1483       H  0.82388494  0.23648636  0.17687886     0.11300
H1484       H  0.85972889  0.30985711  0.25914313     0.11300
C1485       C  0.61571230  0.19148627  0.26855450    -0.14800
C1486       C  0.65227078  0.20947170  0.26640567     0.07300
C1487       C  0.68146875  0.17466338  0.26587897    -0.14800
C1488       C  0.67411930  0.12254419  0.26677077    -0.14800
C1489       C  0.63747838  0.10458611  0.26681028     0.07300
C1490       C  0.60830902  0.13936462  0.26807186    -0.14800
H1491       H  0.59269564  0.21780493  0.26873430     0.11300
H1492       H  0.70974795  0.18771977  0.26408474     0.11300
H1493       H  0.69705999  0.09618688  0.26558918     0.11300
H1494       H  0.57995335  0.12627852  0.26795220     0.11300
C1495       C  0.54545213  0.26373031  0.22100183    -0.14800
C1496       C  0.55054986  0.31112269  0.23506292     0.07300
C1497       C  0.52454019  0.32840375  0.25620142    -0.14800
C1498       C  0.49414263  0.29858861  0.26337859    -0.14800
C1499       C  0.48890948  0.25135582  0.24917255     0.07300
C1500       C  0.51500597  0.23394865  0.22813672    -0.14800
H1501       H  0.56551026  0.24897064  0.20509036     0.11300
H1502       H  0.52815869  0.36434121  0.26784423     0.11300
H1503       H  0.47409486  0.31337024  0.27929351     0.11300
H1504       H  0.51134170  0.19805519  0.21645725     0.11300
C1505       C  0.56706969  0.45125313  0.88429705    -0.14800
C1506       C  0.56966693  0.40427276  0.89897230     0.07300
C1507       C  0.56651322  0.35926390  0.88175821    -0.14800
C1508       C  0.56741286  0.36110777  0.85018463    -0.40400
C1509       C  0.57126254  0.40802904  0.83561984     0.07300
C1510       C  0.56784187  0.45309983  0.85272848    -0.14800
H1511       H  0.56921247  0.48640974  0.89696403     0.11300
H1512       H  0.56780060  0.32240712  0.89268261     0.11300
H1513       H  0.56967433  0.32590052  0.83757121     0.11300
H1514       H  0.57007492  0.48990950  0.84187131     0.11300
C1515       C  0.66898212  0.44923020  0.09441613    -0.14800
C1516       C  0.63135124  0.44518384  0.08659435     0.07300
C1517       C  0.60477119  0.44808467  0.10951196    -0.14800
C1518       C  0.61583209  0.44787262  0.13988964    -0.14800
C1519       C  0.65355812  0.44551224  0.14770208     0.07300
C1520       C  0.68003343  0.44982607  0.12479108    -0.14800
H1521       H  0.69000023  0.44659365  0.07701671     0.11300
H1522       H  0.57570921  0.44422384  0.10412206     0.11300
H1523       H  0.59489280  0.44417677  0.15727051     0.11300
H1524       H  0.70918778  0.44730667  0.13016764     0.11300
C1525       C  0.49813594  0.29348333  0.03936180    -0.14800
C1526       C  0.50497928  0.32887237  0.01618129     0.07300
C1527       C  0.47825486  0.33421654  0.99318792    -0.14800
C1528       C  0.44638803  0.30342205  0.99278535    -0.14800
C1529       C  0.44032398  0.26674049  0.01547315     0.07300
C1530       C  0.46634167  0.26308598  0.03906273    -0.14800
H1531       H  0.51799056  0.28808670  0.05740464     0.11300
H1532       H  0.48269717  0.36070369  0.97481386     0.11300
H1533       H  0.42716552  0.30713179  0.97414652     0.11300
H1534       H  0.46285942  0.23527152  0.05689148     0.11300
C1535       C  0.67061309  0.19035213  0.96559567    -0.14800
C1536       C  0.63417777  0.20875245  0.96773373     0.07300
C1537       C  0.60470611  0.17440974  0.96803469    -0.14800
C1538       C  0.61169494  0.12223568  0.96703039    -0.14800
C1539       C  0.64821860  0.10386671  0.96712679     0.07300
C1540       C  0.67763965  0.13819242  0.96596642    -0.14800
H1541       H  0.69381910  0.21635409  0.96558245     0.11300
H1542       H  0.57651598  0.18786154  0.96977795     0.11300
H1543       H  0.58858493  0.09617327  0.96804496     0.11300
H1544       H  0.70590738  0.12471203  0.96616600     0.11300
C1545       C  0.69610046  0.55449738  0.99142591    -0.14800
C1546       C  0.69043662  0.51681967  0.96924018     0.07300
C1547       C  0.71695688  0.51187052  0.94612291    -0.14800
C1548       C  0.74887929  0.54193639  0.94586293    -0.14800
C1549       C  0.75535047  0.57827790  0.96860055     0.07300
C1550       C  0.72811203  0.58499091  0.99104901    -0.14800
H1551       H  0.67645566  0.55921088  0.00967918     0.11300
H1552       H  0.71378654  0.48326267  0.92868640     0.11300
H1553       H  0.76911977  0.53551403  0.92823873     0.11300
H1554       H  0.73226023  0.61229232  0.00906366     0.11300
C1555       C  0.81665252  0.11140576  0.63420632    -0.14800
C1556       C  0.82021715  0.15816753  0.64900521     0.07300
C1557       C  0.81658561  0.20341104  0.63208340    -0.14800
C1558       C  0.81620561  0.20194567  0.60048404    -0.14800
C1559       C  0.81924978  0.15516396  0.58562373     0.07300
C1560       C  0.81601822  0.10994249  0.60262379    -0.14800
H1561       H  0.81904998  0.07607583  0.64664933     0.11300
H1562       H  0.81854721  0.24011907  0.64313300     0.11300
H1563       H  0.81835470  0.23725771  0.58798898     0.11300
H1564       H  0.81758693  0.07322026  0.59155619     0.11300
C1565       C  0.74936688  0.26639050  0.78974111    -0.14800
C1566       C  0.75674483  0.23210626  0.76608183     0.07300
C1567       C  0.73030128  0.22719456  0.74284030    -0.14800
C1568       C  0.69834803  0.25780859  0.74251149    -0.14800
C1569       C  0.69193856  0.29379060  0.76553826     0.07300
C1570       C  0.71747081  0.29656709  0.78952895    -0.14800
H1571       H  0.76895222  0.27125604  0.80803364     0.11300
H1572       H  0.73514934  0.20145803  0.72414304     0.11300
H1573       H  0.67945821  0.25473810  0.72360579     0.11300
H1574       H  0.71363264  0.32371342  0.80768300     0.11300
C1575       C  0.93151609  0.42347584  0.71649566    -0.14800
C1576       C  0.90230442  0.45823577  0.71704362     0.07300
C1577       C  0.86567531  0.44030433  0.71604869    -0.14800
C1578       C  0.85828872  0.38821792  0.71669691    -0.14800
C1579       C  0.88748992  0.35344285  0.71696417     0.07300
C1580       C  0.92411889  0.37137492  0.71574889    -0.14800
H1581       H  0.95985211  0.43654909  0.71737200     0.11300
H1582       H  0.84268428  0.46664834  0.71665451     0.11300
H1583       H  0.82995399  0.37515741  0.71774591     0.11300
H1584       H  0.94710698  0.34502900  0.71611425     0.11300
C1585       C  0.94951157  0.00966599  0.74204902    -0.14800
C1586       C  0.94289109  0.04542483  0.71896520     0.07300
C1587       C  0.96868631  0.04880087  0.69519440    -0.14800
C1588       C  0.00088119  0.01915201  0.69516707    -0.14800
C1589       C  0.00829089  0.98483064  0.71879699     0.07300
C1590       C  0.98173409  0.97962243  0.74190869    -0.14800
H1591       H  0.93047129  0.00620329  0.76082094     0.11300
H1592       H  0.96474150  0.07590023  0.67704915     0.11300
H1593       H  0.02057694  0.02430903  0.67699597     0.11300
H1594       H  0.98659183  0.95388912  0.76059688     0.11300
C1595       C  0.99329835  0.29919853  0.76294788    -0.14800
C1596       C  0.98869416  0.25090791  0.74986227     0.07300
C1597       C  0.01584172  0.23187902  0.73027482    -0.14800
C1598       C  0.04677714  0.26097476  0.72351622    -0.14800
C1599       C  0.05129663  0.30936262  0.73648843     0.07300
C1600       C  0.02420233  0.32832080  0.75615175    -0.14800
H1601       H  0.97244962  0.31526830  0.77768205     0.11300
H1602       H  0.01271685  0.19511444  0.71948181     0.11300
H1603       H  0.06763039  0.24493068  0.70876599     0.11300
H1604       H  0.02728942  0.36512463  0.76690399     0.11300
C1605       C  0.97098256  0.20451574  0.10241726    -0.14800
C1606       C  0.96777611  0.15917125  0.08550933     0.07300
C1607       C  0.97209392  0.11251054  0.10025610    -0.14800
C1608       C  0.97285257  0.11110099  0.13183707    -0.14800
C1609       C  0.96897986  0.15626362  0.14882277     0.07300
C1610       C  0.97144166  0.20309404  0.13399320    -0.14800
H1611       H  0.96851755  0.24117002  0.09139634     0.11300
H1612       H  0.97007890  0.07712422  0.08780608     0.11300
H1613       H  0.97173855  0.07437304  0.14291416     0.11300
H1614       H  0.96882297  0.23836447  0.14649274     0.11300
C1615       C  0.79392011  0.30075238  0.97348735    -0.14800
C1616       C  0.79861087  0.25238592  0.98639933     0.07300
C1617       C  0.77188107  0.23358496  0.00644573    -0.14800
C1618       C  0.74112007  0.26280983  0.01360477    -0.14800
C1619       C  0.73637290  0.31108936  0.00057522     0.07300
C1620       C  0.76322509  0.33000844  0.98069673    -0.14800
H1621       H  0.81450730  0.31670703  0.95847400     0.11300
H1622       H  0.77514474  0.19681968  0.01719199     0.11300
H1623       H  0.72048797  0.24685271  0.02856748     0.11300
H1624       H  0.75999634  0.36678883  0.96995164     0.11300
C1625       C  0.93074028  0.11592334  0.87578957    -0.14800
C1626       C  0.90366304  0.12031082  0.89824442     0.07300
C1627       C  0.86617020  0.11760132  0.88980411    -0.14800
C1628       C  0.85587958  0.11659653  0.85924953    -0.14800
C1629       C  0.88299231  0.11919864  0.83673718     0.07300
C1630       C  0.92045046  0.11581616  0.84521847    -0.14800
H1631       H  0.95973311  0.11868158  0.88164675     0.11300
H1632       H  0.84477767  0.12131464  0.90681863     0.11300
H1633       H  0.82692611  0.11998514  0.85335346     0.11300
H1634       H  0.94187529  0.11827763  0.82815776     0.11300
C1635       C  0.80648234  0.97859609  0.99330048    -0.14800
C1636       C  0.77949095  0.98436382  0.01603829     0.07300
C1637       C  0.78633438  0.01964540  0.03930836    -0.14800
C1638       C  0.81834022  0.04967226  0.03925369    -0.14800
C1639       C  0.84456157  0.04574419  0.01581987     0.07300
C1640       C  0.83853233  0.00903000  0.99313012    -0.14800
H1641       H  0.80208670  0.95212256  0.97489016     0.11300
H1642       H  0.76630996  0.02530391  0.05718854     0.11300
H1643       H  0.82179731  0.07748822  0.05709655     0.11300
H1644       H  0.85792498  0.00506349  0.97462771     0.11300
C1645       C  0.05689340  0.22844044  0.99208559    -0.14800
C1646       C  0.03043283  0.23348302  0.96886000     0.07300
C1647       C  0.03793120  0.26773983  0.94522390    -0.14800
C1648       C  0.07001309  0.29760211  0.94539287    -0.14800
C1649       C  0.09562336  0.29457783  0.96932809     0.07300
C1650       C  0.08900885  0.25874621  0.99238081    -0.14800
H1651       H  0.05197412  0.20275332  0.01078308     0.11300
H1652       H  0.01833903  0.27275146  0.92695357     0.11300
H1653       H  0.07396232  0.32468316  0.92723731     0.11300
H1654       H  0.10791408  0.25549967  0.01126535     0.11300
C1655       C  0.92939699  0.38869394  0.01900983    -0.14800
C1656       C  0.90011602  0.35404329  0.01891642     0.07300
C1657       C  0.86354734  0.37212757  0.02046041    -0.14800
C1658       C  0.85623962  0.42423490  0.01970199    -0.14800
C1659       C  0.88549642  0.45886302  0.01881908     0.07300
C1660       C  0.92211154  0.44082067  0.01965102    -0.14800
H1661       H  0.95769080  0.37551270  0.01772289     0.11300
H1662       H  0.84049543  0.34588238  0.02026075     0.11300
H1663       H  0.82791220  0.43741503  0.01897922     0.11300
H1664       H  0.94513163  0.46707383  0.01880099     0.11300
loop_ 
_geom_bond_atom_site_label_1 
_geom_bond_atom_site_label_2 
_geom_bond_distance 
_geom_bond_site_symmetry_2 
_ccdc_geom_bond_type 
O1          Cr19   2.000       .  S
O1            C9   1.264       .  A
O2          Cr19   2.043   1_554  S
O2            C3   1.276       .  A
C3            O4   1.254       .  A
C3         C1606   1.474       .  S
O4          Cr20   1.941       .  S
O5          Cr20   1.998       .  S
O5            C6   1.261       .  A
C6            O7   1.262   1_554  A
C6         C1656   1.467       .  S
O7          Cr21   1.986       .  S
O8          Cr21   2.015       .  S
O8            C9   1.268       .  A
C9         C1646   1.498   1_655  S
O10         Cr19   2.042       .  S
O10          C18   1.273       .  A
O11         Cr19   2.012       .  S
O11          C12   1.264   1_556  A
C12          O13   1.264       .  A
C12        C1639   1.499       .  S
O13         Cr20   2.006       .  S
O14         Cr20   1.957       .  S
O14          C15   1.258   1_554  A
C15          O16   1.267       .  A
C15        C1616   1.463       .  S
O16         Cr21   2.001       .  S
O17         Cr21   1.955       .  S
O17          C18   1.255       .  A
C18        C1626   1.478       .  S
Cr19         O22   1.769       .  S
Cr20         O22   1.758   1_554  S
Cr21         O22   1.760       .  S
O23         Cr41   1.998       .  S
O23          C31   1.264       .  A
O24         Cr41   2.044       .  S
O24          C25   1.277       .  A
C25          O26   1.254       .  A
C25        C1556   1.475       .  S
O26         Cr42   1.944       .  S
O27         Cr42   1.998       .  S
O27          C28   1.261       .  A
C28          O29   1.262       .  A
C28        C1579   1.467       .  S
O29         Cr43   1.986       .  S
O30         Cr43   2.013       .  S
O30          C31   1.268       .  A
C31        C1566   1.496       .  S
O32         Cr41   2.042       .  S
O32          C40   1.273       .  A
O33         Cr41   2.010       .  S
O33          C34   1.264       .  A
C34          O35   1.263       .  A
C34        C1586   1.498       .  S
O35         Cr42   2.006       .  S
O36         Cr42   1.959       .  S
O36          C37   1.258       .  A
C37          O38   1.266       .  A
C37        C1596   1.463       .  S
O38         Cr43   1.999       .  S
O39         Cr43   1.954       .  S
O39          C40   1.254       .  A
C40        C1629   1.477       .  S
Cr41         O44   1.770       .  S
Cr42         O44   1.758       .  S
Cr43         O44   1.760       .  S
O45         Cr63   2.012       .  S
O45          C53   1.268       .  A
O46         Cr63   1.984   1_556  S
O46          C47   1.262       .  A
C47          O48   1.262       .  A
C47        C1536   1.466       .  S
O48         Cr64   1.997       .  S
O49         Cr64   1.943       .  S
O49          C50   1.254       .  A
C50          O51   1.276       .  A
C50        C1506   1.474       .  S
O51         Cr65   2.043       .  S
O52         Cr65   2.001       .  S
O52          C53   1.264   1_556  A
C53        C1526   1.498       .  S
O54         Cr63   1.953       .  S
O54          C62   1.254       .  A
O55         Cr63   2.000       .  S
O55          C56   1.266       .  A
C56          O57   1.258   1_554  A
C56        C1619   1.462       .  S
O57         Cr64   1.958       .  S
O58         Cr64   2.004       .  S
O58          C59   1.264       .  A
C59          O60   1.264       .  A
C59        C1546   1.497       .  S
O60         Cr65   2.010       .  S
O61         Cr65   2.042   1_554  S
O61          C62   1.273       .  A
C62        C1516   1.476       .  S
Cr63         O66   1.759   1_554  S
Cr64         O66   1.756       .  S
Cr65         O66   1.769       .  S
O67         Cr85   2.014       .  S
O67          C75   1.268       .  A
O68         Cr85   1.986       .  S
O68          C69   1.263       .  A
C69          O70   1.262       .  A
C69        C1486   1.469       .  S
O70         Cr86   2.000       .  S
O71         Cr86   1.944       .  S
O71          C72   1.254       .  A
C72          O73   1.276       .  A
C72        C1456   1.474       .  S
O73         Cr87   2.044       .  S
O74         Cr87   1.999       .  S
O74          C75   1.264       .  A
C75        C1476   1.498       .  S
O76         Cr85   1.953       .  S
O76          C84   1.254       .  A
O77         Cr85   1.999       .  S
O77          C78   1.266       .  A
C78          O79   1.258       .  A
C78        C1496   1.462       .  S
O79         Cr86   1.958       .  S
O80         Cr86   2.007       .  S
O80          C81   1.264       .  A
C81          O82   1.264       .  A
C81        C1466   1.497       .  S
O82         Cr87   2.008       .  S
O83         Cr87   2.042       .  S
O83          C84   1.273       .  A
C84        C1519   1.477       .  S
Cr85         O88   1.761       .  S
Cr86         O88   1.756       .  S
Cr87         O88   1.770       .  S
O89        Cr107   1.996       .  S
O89          C97   1.264       .  A
O90        Cr107   2.044       .  S
O90          C91   1.276       .  A
C91          O92   1.255       .  A
C91        C1409   1.475       .  S
O92        Cr108   1.945       .  S
O93        Cr108   2.002       .  S
O93          C94   1.262       .  A
C94          O95   1.262       .  A
C94        C1426   1.468       .  S
O95        Cr109   1.985       .  S
O96        Cr109   2.013       .  S
O96          C97   1.268       .  A
C97        C1416   1.495       .  S
O98        Cr107   2.043       .  S
O98         C106   1.273       .  A
O99        Cr107   2.007       .  S
O99         C100   1.264       .  A
C100        O101   1.264       .  A
C100       C1439   1.496       .  S
O101       Cr108   2.007       .  S
O102       Cr108   1.958       .  S
O102        C103   1.258       .  A
C103        O104   1.266       .  A
C103       C1499   1.461       .  S
O104       Cr109   1.998       .  S
O105       Cr109   1.954       .  S
O105        C106   1.254       .  A
C106       C1446   1.478       .  S
Cr107       O110   1.769       .  S
Cr108       O110   1.757       .  S
Cr109       O110   1.759       .  S
O111       Cr129   1.997       .  S
O111        C119   1.264       .  A
O112       Cr129   2.046       .  S
O112        C113   1.277       .  A
C113        O114   1.254       .  A
C113       C1356   1.476       .  S
O114       Cr130   1.944       .  S
O115       Cr130   2.003       .  S
O115        C116   1.263       .  A
C116        O117   1.262       .  A
C116       C1386   1.468       .  S
O117       Cr131   1.984       .  S
O118       Cr131   2.014       .  S
O118        C119   1.268       .  A
C119       C1376   1.496       .  S
O120       Cr129   2.045       .  S
O120        C128   1.274       .  A
O121       Cr129   2.008       .  S
O121        C122   1.264       .  A
C122        O123   1.265       .  A
C122       C1366   1.499       .  S
O123       Cr130   2.009       .  S
O124       Cr130   1.956       .  S
O124        C125   1.257       .  A
C125        O126   1.266       .  A
C125       C1396   1.461       .  S
O126       Cr131   2.000       .  S
O127       Cr131   1.953       .  S
O127        C128   1.254       .  A
C128       C1449   1.478       .  S
Cr129       O132   1.769       .  S
Cr130       O132   1.757       .  S
Cr131       O132   1.760       .  S
O133       Cr151   2.014       .  S
O133        C141   1.268       .  A
O134       Cr151   1.983       .  S
O134        C135   1.262       .  A
C135        O136   1.262       .  A
C135       C1339   1.466       .  S
O136       Cr152   1.999       .  S
O137       Cr152   1.941       .  S
O137        C138   1.253       .  A
C138        O139   1.276       .  A
C138       C1306   1.475       .  S
O139       Cr153   2.046       .  S
O140       Cr153   1.998       .  S
O140        C141   1.264       .  A
C141       C1326   1.497       .  S
O142       Cr151   1.953       .  S
O142        C150   1.255       .  A
O143       Cr151   2.001       .  S
O143        C144   1.266       .  A
C144        O145   1.258       .  A
C144       C1599   1.463       .  S
O145       Cr152   1.958       .  S
O146       Cr152   2.007       .  S
O146        C147   1.264       .  A
C147        O148   1.264       .  A
C147       C1316   1.498       .  S
O148       Cr153   2.008       .  S
O149       Cr153   2.045       .  S
O149        C150   1.274       .  A
C150       C1346   1.478       .  S
Cr151       O154   1.759       .  S
Cr152       O154   1.757       .  S
Cr153       O154   1.769       .  S
O155       Cr173   2.015       .  S
O155        C163   1.268       .  A
O156       Cr173   1.985       .  S
O156        C157   1.262       .  A
C157        O158   1.262       .  A
C157       C1286   1.468       .  S
O158       Cr174   2.001       .  S
O159       Cr174   1.944       .  S
O159        C160   1.254       .  A
C160        O161   1.276       .  A
C160       C1266   1.474       .  S
O161       Cr175   2.044       .  S
O162       Cr175   1.999       .  S
O162        C163   1.264       .  A
C163       C1276   1.497       .  S
O164       Cr173   1.952       .  S
O164        C172   1.254       .  A
O165       Cr173   2.000       .  S
O165        C166   1.266       .  A
C166        O167   1.258       .  A
C166       C1399   1.461       .  S
O167       Cr174   1.957       .  S
O168       Cr174   2.007       .  S
O168        C169   1.264       .  A
C169        O170   1.264       .  A
C169       C1296   1.498       .  S
O170       Cr175   2.010       .  S
O171       Cr175   2.043       .  S
O171        C172   1.274       .  A
C172       C1349   1.477       .  S
Cr173       O176   1.760       .  S
Cr174       O176   1.756       .  S
Cr175       O176   1.769       .  S
O177       Cr195   2.013       .  S
O177        C185   1.268       .  A
O178       Cr195   1.985       .  S
O178        C179   1.262       .  A
C179        O180   1.262       .  A
C179       C1226   1.468       .  S
O180       Cr196   2.000       .  S
O181       Cr196   1.943       .  S
O181        C182   1.254       .  A
C182        O183   1.275       .  A
C182       C1206   1.473       .  S
O183       Cr197   2.042       .  S
O184       Cr197   2.001       .  S
O184        C185   1.265       .  A
C185       C1216   1.498       .  S
O186       Cr195   1.955       .  S
O186        C194   1.255       .  A
O187       Cr195   1.998       .  S
O187        C188   1.266       .  A
C188        O189   1.258       .  A
C188       C1236   1.462       .  S
O189       Cr196   1.957       .  S
O190       Cr196   2.008       .  S
O190        C191   1.265       .  A
C191        O192   1.265       .  A
C191       C1256   1.499   1_565  S
O192       Cr197   2.010       .  S
O193       Cr197   2.040       .  S
O193        C194   1.273       .  A
C194       C1246   1.477       .  S
Cr195       O198   1.759       .  S
Cr196       O198   1.756       .  S
Cr197       O198   1.770       .  S
O199       Cr217   2.011       .  S
O199        C207   1.267       .  A
O200       Cr217   1.985       .  S
O200        C201   1.262       .  A
C201        O202   1.262       .  A
C201       C1196   1.467       .  S
O202       Cr218   2.000       .  S
O203       Cr218   1.943       .  S
O203        C204   1.254       .  A
C204        O205   1.278       .  A
C204       C1156   1.477       .  S
O205       Cr219   2.048       .  S
O206       Cr219   1.999       .  S
O206        C207   1.264       .  A
C207       C1186   1.495       .  S
O208       Cr217   1.950       .  S
O208        C216   1.254       .  A
O209       Cr217   1.998       .  S
O209        C210   1.266       .  A
C210        O211   1.257       .  A
C210       C1176   1.460       .  S
O211       Cr218   1.956       .  S
O212       Cr218   2.007       .  S
O212        C213   1.264       .  A
C213        O214   1.264       .  A
C213       C1166   1.499   1_565  S
O214       Cr219   2.010       .  S
O215       Cr219   2.045       .  S
O215        C216   1.274       .  A
C216       C1249   1.476       .  S
Cr217       O220   1.760       .  S
Cr218       O220   1.756       .  S
Cr219       O220   1.768       .  S
O221       Cr239   1.998       .  S
O221        C229   1.264       .  A
O222       Cr239   2.045   1_554  S
O222        C223   1.276       .  A
C223        O224   1.254       .  A
C223       C1096   1.475       .  S
O224       Cr240   1.945       .  S
O225       Cr240   2.000       .  S
O225        C226   1.262       .  A
C226        O227   1.262   1_554  A
C226       C1146   1.468       .  S
O227       Cr241   1.985       .  S
O228       Cr241   2.014       .  S
O228        C229   1.268       .  A
C229       C1136   1.497       .  S
O230       Cr239   2.043       .  S
O230        C238   1.273       .  A
O231       Cr239   2.008       .  S
O231        C232   1.264   1_556  A
C232        O233   1.264       .  A
C232       C1106   1.498       .  S
O233       Cr240   2.007       .  S
O234       Cr240   1.959       .  S
O234        C235   1.258   1_554  A
C235        O236   1.266       .  A
C235       C1119   1.463       .  S
O236       Cr241   1.998       .  S
O237       Cr241   1.955       .  S
O237        C238   1.254       .  A
C238       C1126   1.478       .  S
Cr239       O242   1.770       .  S
Cr240       O242   1.758   1_554  S
Cr241       O242   1.759       .  S
O243       Cr261   1.998       .  S
O243        C251   1.264       .  A
O244       Cr261   2.045       .  S
O244        C245   1.277       .  A
C245        O246   1.254       .  A
C245       C1056   1.475       .  S
O246       Cr262   1.944       .  S
O247       Cr262   2.001       .  S
O247        C248   1.262       .  A
C248        O249   1.262       .  A
C248       C1086   1.468       .  S
O249       Cr263   1.986       .  S
O250       Cr263   2.012       .  S
O250        C251   1.267       .  A
C251       C1076   1.495       .  S
O252       Cr261   2.043       .  S
O252        C260   1.274       .  A
O253       Cr261   2.010       .  S
O253        C254   1.264       .  A
C254        O255   1.264       .  A
C254       C1066   1.498       .  S
O255       Cr262   2.007       .  S
O256       Cr262   1.958       .  S
O256        C257   1.258       .  A
C257        O258   1.266       .  A
C257       C1239   1.461       .  S
O258       Cr263   1.999       .  S
O259       Cr263   1.954       .  S
O259        C260   1.254       .  A
C260       C1129   1.478       .  S
Cr261       O264   1.769       .  S
Cr262       O264   1.758       .  S
Cr263       O264   1.760       .  S
O265       Cr283   2.011       .  S
O265        C273   1.268       .  A
O266       Cr283   1.985   1_556  S
O266        C267   1.262       .  A
C267        O268   1.262       .  A
C267       C1026   1.469       .  S
O268       Cr284   1.999       .  S
O269       Cr284   1.944       .  S
O269        C270   1.254       .  A
C270        O271   1.276       .  A
C270       C1006   1.474       .  S
O271       Cr285   2.044       .  S
O272       Cr285   1.999       .  S
O272        C273   1.264   1_556  A
C273       C1016   1.495       .  S
O274       Cr283   1.954       .  S
O274        C282   1.254       .  A
O275       Cr283   1.999       .  S
O275        C276   1.265       .  A
C276        O277   1.258   1_554  A
C276       C1116   1.462   1_554  S
O277       Cr284   1.959       .  S
O278       Cr284   2.008       .  S
O278        C279   1.265       .  A
C279        O280   1.264       .  A
C279       C1046   1.497   1_565  S
O280       Cr285   2.006       .  S
O281       Cr285   2.042   1_554  S
O281        C282   1.273       .  A
C282       C1039   1.477       .  S
Cr283       O286   1.760   1_554  S
Cr284       O286   1.755       .  S
Cr285       O286   1.770       .  S
O287       Cr305   2.011       .  S
O287        C295   1.267       .  A
O288       Cr305   1.984       .  S
O288        C289   1.262       .  A
C289        O290   1.262       .  A
C289        C996   1.466       .  S
O290       Cr306   1.999       .  S
O291       Cr306   1.943       .  S
O291        C292   1.254       .  A
C292        O293   1.277       .  A
C292        C956   1.475       .  S
O293       Cr307   2.046       .  S
O294       Cr307   2.000       .  S
O294        C295   1.264       .  A
C295        C986   1.496       .  S
O296       Cr305   1.950       .  S
O296        C304   1.254       .  A
O297       Cr305   1.998       .  S
O297        C298   1.266       .  A
C298        O299   1.258       .  A
C298        C976   1.461       .  S
O299       Cr306   1.958       .  S
O300       Cr306   2.006       .  S
O300        C301   1.263       .  A
C301        O302   1.264       .  A
C301        C966   1.500   1_565  S
O302       Cr307   2.012       .  S
O303       Cr307   2.043       .  S
O303        C304   1.274       .  A
C304       C1036   1.475       .  S
Cr305       O308   1.760       .  S
Cr306       O308   1.757       .  S
Cr307       O308   1.769       .  S
O309       Cr327   1.999       .  S
O309        C317   1.264       .  A
O310       Cr327   2.043       .  S
O310        C311   1.276       .  A
C311        O312   1.254       .  A
C311        C906   1.475       .  S
O312       Cr328   1.942       .  S
O313       Cr328   2.001       .  S
O313        C314   1.262       .  A
C314        O315   1.262       .  A
C314        C926   1.468       .  S
O315       Cr329   1.985       .  S
O316       Cr329   2.014       .  S
O316        C317   1.268       .  A
C317        C916   1.496       .  S
O318       Cr327   2.042       .  S
O318        C326   1.273       .  A
O319       Cr327   2.011       .  S
O319        C320   1.265       .  A
C320        O321   1.264       .  A
C320        C946   1.499       .  S
O321       Cr328   2.007       .  S
O322       Cr328   1.958       .  S
O322        C323   1.258       .  A
C323        O324   1.266       .  A
C323        C979   1.462       .  S
O324       Cr329   1.998       .  S
O325       Cr329   1.954       .  S
O325        C326   1.254       .  A
C326        C936   1.477       .  S
Cr327       O330   1.770       .  S
Cr328       O330   1.758       .  S
Cr329       O330   1.759       .  S
O331       Cr349   2.001       .  S
O331        C339   1.264       .  A
O332       Cr349   2.044       .  S
O332        C333   1.276       .  A
C333        O334   1.254       .  A
C333        C866   1.475       .  S
O334       Cr350   1.943       .  S
O335       Cr350   2.001       .  S
O335        C336   1.262       .  A
C336        O337   1.262       .  A
C336        C886   1.468       .  S
O337       Cr351   1.985       .  S
O338       Cr351   2.014       .  S
O338        C339   1.268       .  A
C339        C876   1.498   1_655  S
O340       Cr349   2.043       .  S
O340        C348   1.273       .  A
O341       Cr349   2.012       .  S
O341        C342   1.265       .  A
C342        O343   1.264       .  A
C342        C896   1.501       .  S
O343       Cr350   2.008       .  S
O344       Cr350   1.957       .  S
O344        C345   1.258       .  A
C345        O346   1.266       .  A
C345       C1179   1.460       .  S
O346       Cr351   1.997       .  S
O347       Cr351   1.954       .  S
O347        C348   1.254       .  A
C348        C939   1.477       .  S
Cr349       O352   1.769       .  S
Cr350       O352   1.759       .  S
Cr351       O352   1.760       .  S
O353       Cr371   2.001       .  S
O353        C361   1.264       .  A
O354       Cr371   2.047       .  S
O354        C355   1.277       .  A
C355        O356   1.254       .  A
C355       C1559   1.475       .  S
O356       Cr372   1.940       .  S
O357       Cr372   1.999       .  S
O357        C358   1.262       .  A
C358        O359   1.263       .  A
C358        C889   1.469   1_545  S
O359       Cr373   1.987       .  S
O360       Cr373   2.012       .  S
O360        C361   1.268       .  A
C361       C1169   1.497       .  S
O362       Cr371   2.046       .  S
O362        C370   1.274       .  A
O363       Cr371   2.011       .  S
O363        C364   1.264       .  A
C364        O365   1.263       .  A
C364       C1279   1.499       .  S
O365       Cr372   2.006       .  S
O366       Cr372   1.958       .  S
O366        C367   1.258       .  A
C367        O368   1.266       .  A
C367        C849   1.461       .  S
O368       Cr373   1.998       .  S
O369       Cr373   1.953       .  S
O369        C370   1.254       .  A
C370        C856   1.480       .  S
Cr371       O374   1.769       .  S
Cr372       O374   1.757       .  S
Cr373       O374   1.760       .  S
O375       Cr393   2.002       .  S
O375        C383   1.264       .  A
O376       Cr393   2.044       .  S
O376        C377   1.276       .  A
C377        O378   1.254       .  A
C377       C1609   1.474       .  S
O378       Cr394   1.941       .  S
O379       Cr394   1.999       .  S
O379        C380   1.262       .  A
C380        O381   1.262       .  A
C380        C929   1.468   1_545  S
O381       Cr395   1.986       .  S
O382       Cr395   2.014       .  S
O382        C383   1.268       .  A
C383        C969   1.499   1_655  S
O384       Cr393   2.045       .  S
O384        C392   1.274       .  A
O385       Cr393   2.012       .  S
O385        C386   1.265       .  A
C386        O387   1.264       .  A
C386       C1479   1.499       .  S
O387       Cr394   2.006       .  S
O388       Cr394   1.958       .  S
O388        C389   1.258       .  A
C389        O390   1.266       .  A
C389        C836   1.462       .  S
O390       Cr395   1.998       .  S
O391       Cr395   1.955       .  S
O391        C392   1.254       .  A
C392        C859   1.479       .  S
Cr393       O396   1.770       .  S
Cr394       O396   1.758       .  S
Cr395       O396   1.760       .  S
O397       Cr415   2.014       .  S
O397        C405   1.268       .  A
O398       Cr415   1.986   1_545  S
O398        C399   1.263       .  A
C399        O400   1.261       .  A
C399       C1336   1.466       .  S
O400       Cr416   1.998   1_545  S
O401       Cr416   1.944       .  S
O401        C402   1.255       .  A
C402        O403   1.277       .  A
C402       C1009   1.476       .  S
O403       Cr417   2.044       .  S
O404       Cr417   1.998       .  S
O404        C405   1.264       .  A
C405       C1589   1.497       .  S
O406       Cr415   1.953       .  S
O406        C414   1.254       .  A
O407       Cr415   1.997       .  S
O407        C408   1.266       .  A
C408        O409   1.258       .  A
C408        C816   1.461   1_565  S
O409       Cr416   1.958       .  S
O410       Cr416   2.004       .  S
O410        C411   1.263       .  A
C411        O412   1.264       .  A
C411       C1079   1.496       .  S
O412       Cr417   2.009       .  S
O413       Cr417   2.042       .  S
O413        C414   1.273       .  A
C414        C826   1.477       .  S
Cr415       O418   1.760       .  S
Cr416       O418   1.759       .  S
Cr417       O418   1.768       .  S
O419       Cr437   2.013       .  S
O419        C427   1.268       .  A
O420       Cr437   1.986   1_545  S
O420        C421   1.263       .  A
C421        O422   1.262       .  A
C421       C1289   1.468       .  S
O422       Cr438   2.000   1_545  S
O423       Cr438   1.944       .  S
O423        C424   1.254       .  A
C424        O425   1.276       .  A
C424        C959   1.475       .  S
O425       Cr439   2.044       .  S
O426       Cr439   2.001       .  S
O426        C427   1.265       .  A
C427       C1369   1.498       .  S
O428       Cr437   1.953       .  S
O428        C436   1.254       .  A
O429       Cr437   1.998       .  S
O429        C430   1.265       .  A
C430        O431   1.258       .  A
C430        C846   1.461   1_565  S
O431       Cr438   1.958       .  S
O432       Cr438   2.007       .  S
O432        C433   1.264       .  A
C433        O434   1.265       .  A
C433        C879   1.499       .  S
O434       Cr439   2.011       .  S
O435       Cr439   2.043       .  S
O435        C436   1.273       .  A
C436        C829   1.477       .  S
Cr437       O440   1.760       .  S
Cr438       O440   1.757       .  S
Cr439       O440   1.769       .  S
O441       Cr459   2.013       .  S
O441        C449   1.268       .  A
O442       Cr459   1.983   1_546  S
O442        C443   1.262       .  A
C443        O444   1.262       .  A
C443       C1539   1.465       .  S
O444       Cr460   2.000   1_545  S
O445       Cr460   1.942       .  S
O445        C446   1.254       .  A
C446        O447   1.277       .  A
C446       C1209   1.475       .  S
O447       Cr461   2.043       .  S
O448       Cr461   2.000       .  S
O448        C449   1.264   1_556  A
C449       C1636   1.498       .  S
O450       Cr459   1.951       .  S
O450        C458   1.254       .  A
O451       Cr459   1.997       .  S
O451        C452   1.266       .  A
C452        O453   1.258   1_554  A
C452        C796   1.461   1_554  S
O453       Cr460   1.958       .  S
O454       Cr460   2.005       .  S
O454        C455   1.263       .  A
C455        O456   1.264       .  A
C455       C1139   1.498       .  S
O456       Cr461   2.010       .  S
O457       Cr461   2.044   1_554  S
O457        C458   1.274       .  A
C458        C806   1.477       .  S
Cr459       O462   1.759   1_554  S
Cr460       O462   1.759       .  S
Cr461       O462   1.768       .  S
O463       Cr481   2.012       .  S
O463        C471   1.268       .  A
O464       Cr481   1.986   1_545  S
O464        C465   1.262       .  A
C465        O466   1.262       .  A
C465       C1489   1.468       .  S
O466       Cr482   2.001   1_545  S
O467       Cr482   1.945       .  S
O467        C468   1.255       .  A
C468        O469   1.277       .  A
C468       C1159   1.477       .  S
O469       Cr483   2.047       .  S
O470       Cr483   1.998       .  S
O470        C471   1.264       .  A
C471       C1436   1.495       .  S
O472       Cr481   1.953       .  S
O472        C480   1.254       .  A
O473       Cr481   1.997       .  S
O473        C474   1.266       .  A
C474        O475   1.258       .  A
C474        C839   1.461   1_565  S
O475       Cr482   1.959       .  S
O476       Cr482   2.007       .  S
O476        C477   1.264       .  A
C477        O478   1.264       .  A
C477        C919   1.497       .  S
O478       Cr483   2.008       .  S
O479       Cr483   2.044       .  S
O479        C480   1.274       .  A
C480        C809   1.478       .  S
Cr481       O484   1.760       .  S
Cr482       O484   1.758       .  S
Cr483       O484   1.769       .  S
O485       Cr503   1.998       .  S
O485        C493   1.264       .  A
O486       Cr503   2.045   1_554  S
O486        C487   1.276       .  A
C487        O488   1.254       .  A
C487       C1406   1.475       .  S
O488       Cr504   1.943       .  S
O489       Cr504   2.000       .  S
O489        C490   1.262       .  A
C490        O491   1.263   1_554  A
C490       C1149   1.469   1_545  S
O491       Cr505   1.986       .  S
O492       Cr505   2.011       .  S
O492        C493   1.268       .  A
C493       C1049   1.496       .  S
O494       Cr503   2.043       .  S
O494        C502   1.274       .  A
O495       Cr503   2.009       .  S
O495        C496   1.264   1_556  A
C496        O497   1.264       .  A
C496       C1529   1.499       .  S
O497       Cr504   2.008       .  S
O498       Cr504   1.957   1_556  S
O498        C499   1.258       .  A
C499        O500   1.265       .  A
C499        C799   1.460       .  S
O500       Cr505   1.997       .  S
O501       Cr505   1.952       .  S
O501        C502   1.254       .  A
C502        C786   1.477       .  S
Cr503       O506   1.770       .  S
Cr504       O506   1.756   1_554  S
Cr505       O506   1.760       .  S
O507       Cr525   2.000       .  S
O507        C515   1.265       .  A
O508       Cr525   2.045       .  S
O508        C509   1.277       .  A
C509        O510   1.255       .  A
C509       C1359   1.475       .  S
O510       Cr526   1.944       .  S
O511       Cr526   2.002       .  S
O511        C512   1.262       .  A
C512        O513   1.262       .  A
C512       C1089   1.469   1_545  S
O513       Cr527   1.985       .  S
O514       Cr527   2.013       .  S
O514        C515   1.268       .  A
C515       C1259   1.498       .  S
O516       Cr525   2.043       .  S
O516        C524   1.273       .  A
O517       Cr525   2.011       .  S
O517        C518   1.264       .  A
C518        O519   1.264       .  A
C518       C1329   1.498       .  S
O519       Cr526   2.007       .  S
O520       Cr526   1.957       .  S
O520        C521   1.257       .  A
C521        O522   1.266       .  A
C521        C819   1.460       .  S
O522       Cr527   1.998       .  S
O523       Cr527   1.952       .  S
O523        C524   1.254       .  A
C524        C789   1.477       .  S
Cr525       O528   1.769       .  S
Cr526       O528   1.757       .  S
Cr527       O528   1.760       .  S
O529       Cr547   2.014       .  S
O529        C537   1.268       .  A
O530       Cr547   1.987   1_556  S
O530        C531   1.263       .  A
C531        O532   1.261       .  A
C531       C1029   1.468       .  S
O532       Cr548   1.999       .  S
O533       Cr548   1.945       .  S
O533        C534   1.255       .  A
C534        O535   1.277       .  A
C534       C1309   1.476       .  S
O535       Cr549   2.044       .  S
O536       Cr549   1.999       .  S
O536        C537   1.264   1_556  A
C537       C1109   1.497       .  S
O538       Cr547   1.954       .  S
O538        C546   1.254       .  A
O539       Cr547   1.998       .  S
O539        C540   1.266       .  A
C540        O541   1.258   1_554  A
C540        C766   1.462   1_554  S
O541       Cr548   1.959       .  S
O542       Cr548   2.006       .  S
O542        C543   1.263       .  A
C543        O544   1.264       .  A
C543       C1649   1.499       .  S
O544       Cr549   2.011       .  S
O545       Cr549   2.041   1_554  S
O545        C546   1.273       .  A
C546        C776   1.477       .  S
Cr547       O550   1.761   1_554  S
Cr548       O550   1.759       .  S
Cr549       O550   1.771       .  S
O551       Cr569   2.014       .  S
O551        C559   1.268       .  A
O552       Cr569   1.983       .  S
O552        C553   1.262       .  A
C553        O554   1.262       .  A
C553        C999   1.465       .  S
O554       Cr570   1.998       .  S
O555       Cr570   1.942       .  S
O555        C556   1.254       .  A
C556        O557   1.276       .  A
C556       C1269   1.476       .  S
O557       Cr571   2.044       .  S
O558       Cr571   2.000       .  S
O558        C559   1.264       .  A
C559        C949   1.498       .  S
O560       Cr569   1.953       .  S
O560        C568   1.254       .  A
O561       Cr569   2.000       .  S
O561        C562   1.266       .  A
C562        O563   1.258       .  A
C562        C759   1.463       .  S
O563       Cr570   1.959       .  S
O564       Cr570   2.004       .  S
O564        C565   1.263       .  A
C565        O566   1.264       .  A
C565       C1419   1.497       .  S
O566       Cr571   2.009       .  S
O567       Cr571   2.042       .  S
O567        C568   1.274       .  A
C568        C779   1.477       .  S
Cr569       O572   1.759       .  S
Cr570       O572   1.757       .  S
Cr571       O572   1.768       .  S
O573       Cr591   1.999       .  S
O573        C581   1.264       .  A
O574       Cr591   2.044   1_554  S
O574        C575   1.276       .  A
C575        O576   1.254       .  A
C575        C909   1.474       .  S
O576       Cr592   1.943       .  S
O577       Cr592   1.998       .  S
O577        C578   1.261       .  A
C578        O579   1.262   1_554  A
C578       C1659   1.467       .  S
O579       Cr593   1.986       .  S
O580       Cr593   2.011       .  S
O580        C581   1.268       .  A
C581       C1549   1.496       .  S
O582       Cr591   2.044       .  S
O582        C590   1.274       .  A
O583       Cr591   2.009       .  S
O583        C584   1.264   1_556  A
C584        O585   1.263       .  A
C584       C1019   1.497       .  S
O585       Cr592   2.004       .  S
O586       Cr592   1.959   1_556  S
O586        C587   1.259       .  A
C587        O588   1.266       .  A
C587        C769   1.462       .  S
O588       Cr593   1.998       .  S
O589       Cr593   1.953       .  S
O589        C590   1.254       .  A
C590        C749   1.479       .  S
Cr591       O594   1.770       .  S
Cr592       O594   1.758   1_554  S
Cr593       O594   1.760       .  S
O595       Cr613   1.998       .  S
O595        C603   1.264       .  A
O596       Cr613   2.047       .  S
O596        C597   1.277       .  A
C597        O598   1.254       .  A
C597        C869   1.476       .  S
O598       Cr614   1.942       .  S
O599       Cr614   1.999       .  S
O599        C600   1.262       .  A
C600        O601   1.262       .  A
C600       C1576   1.467       .  S
O601       Cr615   1.986       .  S
O602       Cr615   2.013       .  S
O602        C603   1.268       .  A
C603       C1319   1.496   1_655  S
O604       Cr613   2.046       .  S
O604        C612   1.274       .  A
O605       Cr613   2.009       .  S
O605        C606   1.264       .  A
C606        O607   1.264       .  A
C606       C1219   1.498       .  S
O607       Cr614   2.007       .  S
O608       Cr614   1.958       .  S
O608        C609   1.258       .  A
C609        O610   1.266       .  A
C609        C736   1.461       .  S
O610       Cr615   1.997       .  S
O611       Cr615   1.952       .  S
O611        C612   1.254       .  A
C612        C746   1.478       .  S
Cr613       O616   1.769       .  S
Cr614       O616   1.757       .  S
Cr615       O616   1.760       .  S
O617       Cr635   2.013       .  S
O617        C625   1.268       .  A
O618       Cr635   1.987       .  S
O618        C619   1.263       .  A
C619        O620   1.262       .  A
C619       C1229   1.468       .  S
O620       Cr636   1.999       .  S
O621       Cr636   1.944       .  S
O621        C622   1.255       .  A
C622        O623   1.276       .  A
C622       C1509   1.474       .  S
O623       Cr637   2.043       .  S
O624       Cr637   2.000       .  S
O624        C625   1.264       .  A
C625       C1069   1.498       .  S
O626       Cr635   1.953       .  S
O626        C634   1.254       .  A
O627       Cr635   1.996       .  S
O627        C628   1.265       .  A
C628        O629   1.258       .  A
C628        C739   1.461       .  S
O629       Cr636   1.959       .  S
O630       Cr636   2.005       .  S
O630        C631   1.264       .  A
C631        O632   1.264       .  A
C631       C1569   1.497       .  S
O632       Cr637   2.010       .  S
O633       Cr637   2.042       .  S
O633        C634   1.273       .  A
C634        C726   1.477       .  S
Cr635       O638   1.760       .  S
Cr636       O638   1.758       .  S
Cr637       O638   1.770       .  S
O639       Cr657   2.014       .  S
O639        C647   1.268       .  A
O640       Cr657   1.983       .  S
O640        C641   1.262       .  A
C641        O642   1.263       .  A
C641       C1199   1.468       .  S
O642       Cr658   2.003       .  S
O643       Cr658   1.942       .  S
O643        C644   1.254       .  A
C644        O645   1.277       .  A
C644       C1459   1.476       .  S
O645       Cr659   2.044       .  S
O646       Cr659   2.001       .  S
O646        C647   1.264       .  A
C647        C899   1.499       .  S
O648       Cr657   1.952       .  S
O648        C656   1.254       .  A
O649       Cr657   1.999       .  S
O649        C650   1.266       .  A
C650        O651   1.257       .  A
C650        C716   1.461       .  S
O651       Cr658   1.958       .  S
O652       Cr658   2.006       .  S
O652        C653   1.263       .  A
C653        O654   1.264       .  A
C653       C1379   1.497       .  S
O654       Cr659   2.010       .  S
O655       Cr659   2.043       .  S
O655        C656   1.274       .  A
C656        C729   1.477       .  S
Cr657       O660   1.760       .  S
Cr658       O660   1.758       .  S
Cr659       O660   1.768       .  S
O661       Cr679   1.998       .  S
O661        C669   1.264       .  A
O662       Cr679   2.045       .  S
O662        C663   1.277       .  A
C663        O664   1.255       .  A
C663       C1059   1.475       .  S
O664       Cr680   1.944       .  S
O665       Cr680   2.002       .  S
O665        C666   1.262       .  A
C666        O667   1.262       .  A
C666       C1389   1.469       .  S
O667       Cr681   1.986       .  S
O668       Cr681   2.014       .  S
O668        C669   1.268       .  A
C669       C1299   1.497       .  S
O670       Cr679   2.046       .  S
O670        C678   1.274       .  A
O671       Cr679   2.007       .  S
O671        C672   1.264       .  A
C672        O673   1.264       .  A
C672       C1189   1.497       .  S
O673       Cr680   2.007       .  S
O674       Cr680   1.957       .  S
O674        C675   1.257       .  A
C675        O676   1.266       .  A
C675        C719   1.461       .  S
O676       Cr681   1.999       .  S
O677       Cr681   1.953       .  S
O677        C678   1.254       .  A
C678        C706   1.480       .  S
Cr679       O682   1.769       .  S
Cr680       O682   1.757       .  S
Cr681       O682   1.760       .  S
O683       Cr701   1.996       .  S
O683        C691   1.263       .  A
O684       Cr701   2.046       .  S
O684        C685   1.277       .  A
C685        O686   1.254       .  A
C685       C1099   1.475       .  S
O686       Cr702   1.942       .  S
O687       Cr702   2.000       .  S
O687        C688   1.262       .  A
C688        O689   1.263       .  A
C688       C1429   1.469       .  S
O689       Cr703   1.987       .  S
O690       Cr703   2.014       .  S
O690        C691   1.268       .  A
C691       C1469   1.496       .  S
O692       Cr701   2.046       .  S
O692        C700   1.274       .  A
O693       Cr701   2.006       .  S
O693        C694   1.263       .  A
C694        O695   1.264       .  A
C694        C989   1.496       .  S
O695       Cr702   2.006       .  S
O696       Cr702   1.958       .  S
O696        C697   1.258       .  A
C697        O698   1.266       .  A
C697        C756   1.463       .  S
O698       Cr703   2.001       .  S
O699       Cr703   1.954       .  S
O699        C700   1.254       .  A
C700        C709   1.480       .  S
Cr701       O704   1.770       .  S
Cr702       O704   1.757       .  S
Cr703       O704   1.760       .  S
C705        C706   1.400       .  A
C705        C710   1.402       .  A
C705        H711   1.084       .  S
C706        C707   1.411       .  A
C707        C708   1.403       .  A
C707        H712   1.084       .  S
C708        C709   1.400       .  A
C708        H713   1.084       .  S
C709        C710   1.411       .  A
C710        H714   1.084       .  S
C715        C716   1.404       .  A
C715        C720   1.388       .  A
C715        H721   1.083       .  S
C716        C717   1.403       .  A
C717        C718   1.389       .  A
C717        H722   1.084       .  S
C718        C719   1.404       .  A
C718        H723   1.083       .  S
C719        C720   1.402       .  A
C720        H724   1.084       .  S
C725        C726   1.400       .  A
C725        C730   1.402       .  A
C725        H731   1.084       .  S
C726        C727   1.410       .  A
C727        C728   1.401       .  A
C727        H732   1.084       .  S
C728        C729   1.400       .  A
C728        H733   1.084       .  S
C729        C730   1.410       .  A
C730        H734   1.084       .  S
C735        C736   1.402       .  A
C735        C740   1.388       .  A
C735        H741   1.083       .  S
C736        C737   1.404       .  A
C737        C738   1.388       .  A
C737        H742   1.083       .  S
C738        C739   1.402       .  A
C738        H743   1.084       .  S
C739        C740   1.404       .  A
C740        H744   1.083       .  S
C745        C746   1.400       .  A
C745        C750   1.402       .  A
C745        H751   1.084       .  S
C746        C747   1.411       .  A
C747        C748   1.402       .  A
C747        H752   1.084       .  S
C748        C749   1.400       .  A
C748        H753   1.084       .  S
C749        C750   1.410       .  A
C750        H754   1.084       .  S
C755        C756   1.403       .  A
C755        C760   1.389       .  A
C755        H761   1.084       .  S
C756        C757   1.404       .  A
C757        C758   1.389       .  A
C757        H762   1.083       .  S
C758        C759   1.402       .  A
C758        H763   1.084       .  S
C759        C760   1.404       .  A
C760        H764   1.083       .  S
C765        C766   1.404   1_554  A
C765        C770   1.389       .  A
C765        H771   1.083       .  S
C766        C767   1.403       .  A
C767        C768   1.389   1_455  A
C767        H772   1.084       .  S
C768        C769   1.404       .  A
C768        H773   1.083       .  S
C769        C770   1.402   1_656  A
C770        H774   1.084       .  S
C775        C776   1.410       .  A
C775        C780   1.401       .  A
C775        H781   1.084       .  S
C776        C777   1.400       .  A
C777        C778   1.402       .  A
C777        H782   1.084       .  S
C778        C779   1.410       .  A
C778        H783   1.084       .  S
C779        C780   1.400       .  A
C780        H784   1.084       .  S
C785        C786   1.400       .  A
C785        C790   1.402       .  A
C785        H791   1.084       .  S
C786        C787   1.410       .  A
C787        C788   1.401       .  A
C787        H792   1.084       .  S
C788        C789   1.400       .  A
C788        H793   1.084       .  S
C789        C790   1.410       .  A
C790        H794   1.084       .  S
C795        C796   1.404   1_544  A
C795        C800   1.387       .  A
C795        H801   1.083       .  S
C796        C797   1.402       .  A
C797        C798   1.389   1_565  A
C797        H802   1.084       .  S
C798        C799   1.405       .  A
C798        H803   1.083   1_545  S
C799        C800   1.401   1_556  A
C800        H804   1.084       .  S
C805        C806   1.400       .  A
C805        C810   1.402       .  A
C805        H811   1.084       .  S
C806        C807   1.410       .  A
C807        C808   1.402       .  A
C807        H812   1.084       .  S
C808        C809   1.400       .  A
C808        H813   1.084       .  S
C809        C810   1.410       .  A
C810        H814   1.084       .  S
C815        C816   1.402   1_565  A
C815        C820   1.388   1_565  A
C815        H821   1.084       .  S
C816        C817   1.404       .  A
C817        C818   1.388       .  A
C817        H822   1.083       .  S
C818        C819   1.402       .  A
C818        H823   1.084       .  S
C819        C820   1.404       .  A
C820        H824   1.083   1_545  S
C825        C826   1.410       .  A
C825        C830   1.401       .  A
C825        H831   1.084       .  S
C826        C827   1.400       .  A
C827        C828   1.401       .  A
C827        H832   1.084       .  S
C828        C829   1.410       .  A
C828        H833   1.084       .  S
C829        C830   1.400       .  A
C830        H834   1.084       .  S
C835        C836   1.404       .  A
C835        C840   1.388   1_545  A
C835        H841   1.083   1_545  S
C836        C837   1.402       .  A
C837        C838   1.389       .  A
C837        H842   1.084       .  S
C838        C839   1.404       .  A
C838        H843   1.083       .  S
C839        C840   1.402   1_545  A
C840        H844   1.084       .  S
C845        C846   1.405       .  A
C845        C850   1.388       .  A
C845        H851   1.083       .  S
C846        C847   1.402   1_545  A
C847        C848   1.388   1_465  A
C847        H852   1.084       .  S
C848        C849   1.405       .  A
C848        H853   1.083   1_545  S
C849        C850   1.402   1_655  A
C850        H854   1.084       .  S
C855        C856   1.410       .  A
C855        C860   1.402       .  A
C855        H861   1.084       .  S
C856        C857   1.400       .  A
C857        C858   1.403       .  A
C857        H862   1.084       .  S
C858        C859   1.410       .  A
C858        H863   1.084       .  S
C859        C860   1.400       .  A
C860        H864   1.084       .  S
C865        C866   1.411       .  A
C865        C870   1.397       .  A
C865        H871   1.083       .  S
C866        C867   1.398       .  A
C867        C868   1.397       .  A
C867        H872   1.083       .  S
C868        C869   1.412       .  A
C868        H873   1.084       .  S
C869        C870   1.398       .  A
C870        H874   1.083       .  S
C875        C876   1.407       .  A
C875        C880   1.402       .  A
C875        H881   1.083       .  S
C876        C877   1.410       .  A
C877        C878   1.410       .  A
C877        H882   1.083       .  S
C878        C879   1.409       .  A
C878        H883   1.083       .  S
C879        C880   1.409       .  A
C880        H884   1.083       .  S
C885        C886   1.398       .  A
C885        C890   1.396       .  A
C885        H891   1.083       .  S
C886        C887   1.408       .  A
C887        C888   1.396       .  A
C887        H892   1.083       .  S
C888        C889   1.398       .  A
C888        H893   1.083       .  S
C889        C890   1.409       .  A
C890        H894   1.083       .  S
C895        C896   1.409       .  A
C895        C900   1.410       .  A
C895        H901   1.083       .  S
C896        C897   1.409       .  A
C897        C898   1.403       .  A
C897        H902   1.083       .  S
C898        C899   1.407       .  A
C898        H903   1.083       .  S
C899        C900   1.410       .  A
C900        H904   1.082       .  S
C905        C906   1.398       .  A
C905        C910   1.397       .  A
C905        H911   1.083       .  S
C906        C907   1.411       .  A
C907        C908   1.397       .  A
C907        H912   1.084       .  S
C908        C909   1.398       .  A
C908        H913   1.083       .  S
C909        C910   1.411       .  A
C910        H914   1.083       .  S
C915        C916   1.410       .  A
C915        C920   1.409       .  A
C915        H921   1.082       .  S
C916        C917   1.406       .  A
C917        C918   1.402       .  A
C917        H922   1.083       .  S
C918        C919   1.409       .  A
C918        H923   1.083       .  S
C919        C920   1.409       .  A
C920        H924   1.083       .  S
C925        C926   1.409       .  A
C925        C930   1.396       .  A
C925        H931   1.083       .  S
C926        C927   1.398       .  A
C927        C928   1.396       .  A
C927        H932   1.083       .  S
C928        C929   1.409       .  A
C928        H933   1.083       .  S
C929        C930   1.398       .  A
C930        H934   1.083       .  S
C935        C936   1.400       .  A
C935        C940   1.402       .  A
C935        H941   1.084       .  S
C936        C937   1.410       .  A
C937        C938   1.401       .  A
C937        H942   1.084       .  S
C938        C939   1.400       .  A
C938        H943   1.084       .  S
C939        C940   1.410       .  A
C940        H944   1.084       .  S
C945        C946   1.409       .  A
C945        C950   1.403   1_655  A
C945        H951   1.082       .  S
C946        C947   1.409       .  A
C947        C948   1.410       .  A
C947        H952   1.083       .  S
C948        C949   1.410   1_655  A
C948        H953   1.082       .  S
C949        C950   1.407       .  A
C950        H954   1.083       .  S
C955        C956   1.398       .  A
C955        C960   1.397       .  A
C955        H961   1.083       .  S
C956        C957   1.411       .  A
C957        C958   1.398       .  A
C957        H962   1.083       .  S
C958        C959   1.399       .  A
C958        H963   1.083       .  S
C959        C960   1.411       .  A
C960        H964   1.083       .  S
C965        C966   1.409       .  A
C965        C970   1.410       .  A
C965        H971   1.083       .  S
C966        C967   1.409       .  A
C967        C968   1.402       .  A
C967        H972   1.083   1_545  S
C968        C969   1.406       .  A
C968        H973   1.083       .  S
C969        C970   1.411       .  A
C970        H974   1.082       .  S
C975        C976   1.402       .  A
C975        C980   1.388   1_455  A
C975        H981   1.083       .  S
C976        C977   1.404       .  A
C977        C978   1.389       .  A
C977        H982   1.083       .  S
C978        C979   1.402   1_455  A
C978        H983   1.084       .  S
C979        C980   1.404       .  A
C980        H984   1.083       .  S
C985        C986   1.407       .  A
C985        C990   1.401       .  A
C985        H991   1.083       .  S
C986        C987   1.410       .  A
C987        C988   1.409       .  A
C987        H992   1.082       .  S
C988        C989   1.408       .  A
C988        H993   1.083       .  S
C989        C990   1.408       .  A
C990        H994   1.082       .  S
C995        C996   1.398       .  A
C995       C1000   1.395       .  A
C995       H1001   1.083       .  S
C996        C997   1.408       .  A
C997        C998   1.395       .  A
C997       H1002   1.083       .  S
C998        C999   1.398       .  A
C998       H1003   1.083       .  S
C999       C1000   1.408       .  A
C1000      H1004   1.083       .  S
C1005      C1006   1.398       .  A
C1005      C1010   1.397       .  A
C1005      H1011   1.083       .  S
C1006      C1007   1.411       .  A
C1007      C1008   1.397       .  A
C1007      H1012   1.084       .  S
C1008      C1009   1.399       .  A
C1008      H1013   1.083       .  S
C1009      C1010   1.411       .  A
C1010      H1014   1.083       .  S
C1015      C1016   1.406   1_655  A
C1015      C1020   1.401       .  A
C1015      H1021   1.083   1_655  S
C1016      C1017   1.410   1_454  A
C1017      C1018   1.409       .  A
C1017      H1022   1.082       .  S
C1018      C1019   1.408   1_556  A
C1018      H1023   1.083       .  S
C1019      C1020   1.409       .  A
C1020      H1024   1.083       .  S
C1025      C1026   1.409       .  A
C1025      C1030   1.396       .  A
C1025      H1031   1.083       .  S
C1026      C1027   1.398       .  A
C1027      C1028   1.397       .  A
C1027      H1032   1.083       .  S
C1028      C1029   1.409       .  A
C1028      H1033   1.083       .  S
C1029      C1030   1.397       .  A
C1030      H1034   1.083       .  S
C1035      C1036   1.410       .  A
C1035      C1040   1.401       .  A
C1035      H1041   1.084       .  S
C1036      C1037   1.399       .  A
C1037      C1038   1.401       .  A
C1037      H1042   1.084       .  S
C1038      C1039   1.410       .  A
C1038      H1043   1.084       .  S
C1039      C1040   1.400       .  A
C1040      H1044   1.084       .  S
C1045      C1046   1.409       .  A
C1045      C1050   1.401       .  A
C1045      H1051   1.083   1_545  S
C1046      C1047   1.409       .  A
C1047      C1048   1.409       .  A
C1047      H1052   1.083   1_556  S
C1048      C1049   1.410       .  A
C1048      H1053   1.082   1_556  S
C1049      C1050   1.406       .  A
C1050      H1054   1.083       .  S
C1055      C1056   1.411       .  A
C1055      C1060   1.397       .  A
C1055      H1061   1.083       .  S
C1056      C1057   1.399       .  A
C1057      C1058   1.397       .  A
C1057      H1062   1.083       .  S
C1058      C1059   1.411       .  A
C1058      H1063   1.084       .  S
C1059      C1060   1.399       .  A
C1060      H1064   1.083       .  S
C1065      C1066   1.409       .  A
C1065      C1070   1.402       .  A
C1065      H1071   1.083       .  S
C1066      C1067   1.409       .  A
C1067      C1068   1.409       .  A
C1067      H1072   1.083       .  S
C1068      C1069   1.410       .  A
C1068      H1073   1.082       .  S
C1069      C1070   1.407       .  A
C1070      H1074   1.083       .  S
C1075      C1076   1.406       .  A
C1075      C1080   1.401       .  A
C1075      H1081   1.083       .  S
C1076      C1077   1.410       .  A
C1077      C1078   1.408       .  A
C1077      H1082   1.082       .  S
C1078      C1079   1.408       .  A
C1078      H1083   1.083       .  S
C1079      C1080   1.409       .  A
C1080      H1084   1.083       .  S
C1085      C1086   1.398       .  A
C1085      C1090   1.397       .  A
C1085      H1091   1.083       .  S
C1086      C1087   1.408       .  A
C1087      C1088   1.396       .  A
C1087      H1092   1.083       .  S
C1088      C1089   1.398       .  A
C1088      H1093   1.083       .  S
C1089      C1090   1.409       .  A
C1090      H1094   1.083       .  S
C1095      C1096   1.399       .  A
C1095      C1100   1.397       .  A
C1095      H1101   1.083       .  S
C1096      C1097   1.411       .  A
C1097      C1098   1.397       .  A
C1097      H1102   1.084       .  S
C1098      C1099   1.398       .  A
C1098      H1103   1.083       .  S
C1099      C1100   1.412       .  A
C1100      H1104   1.083       .  S
C1105      C1106   1.409       .  A
C1105      C1110   1.402       .  A
C1105      H1111   1.083       .  S
C1106      C1107   1.408   1_554  A
C1107      C1108   1.409       .  A
C1107      H1112   1.083       .  S
C1108      C1109   1.410   1_556  A
C1108      H1113   1.082       .  S
C1109      C1110   1.407       .  A
C1110      H1114   1.083       .  S
C1115      C1116   1.405   1_554  A
C1115      C1120   1.390       .  A
C1115      H1121   1.083       .  S
C1116      C1117   1.402       .  A
C1117      C1118   1.388       .  A
C1117      H1122   1.084       .  S
C1118      C1119   1.404       .  A
C1118      H1123   1.083       .  S
C1119      C1120   1.402   1_556  A
C1120      H1124   1.083       .  S
C1125      C1126   1.410       .  A
C1125      C1130   1.402       .  A
C1125      H1131   1.084       .  S
C1126      C1127   1.400       .  A
C1127      C1128   1.402       .  A
C1127      H1132   1.084       .  S
C1128      C1129   1.410       .  A
C1128      H1133   1.084       .  S
C1129      C1130   1.400       .  A
C1130      H1134   1.084       .  S
C1135      C1136   1.410       .  A
C1135      C1140   1.409       .  A
C1135      H1141   1.082   1_556  S
C1136      C1137   1.406       .  A
C1137      C1138   1.402       .  A
C1137      H1142   1.083       .  S
C1138      C1139   1.409       .  A
C1138      H1143   1.083       .  S
C1139      C1140   1.408       .  A
C1140      H1144   1.083   1_556  S
C1145      C1146   1.397       .  A
C1145      C1150   1.396       .  A
C1145      H1151   1.083       .  S
C1146      C1147   1.409       .  A
C1147      C1148   1.397       .  A
C1147      H1152   1.083       .  S
C1148      C1149   1.398       .  A
C1148      H1153   1.083       .  S
C1149      C1150   1.409       .  A
C1150      H1154   1.083       .  S
C1155      C1156   1.399       .  A
C1155      C1160   1.398       .  A
C1155      H1161   1.083       .  S
C1156      C1157   1.412       .  A
C1157      C1158   1.398       .  A
C1157      H1162   1.083       .  S
C1158      C1159   1.399       .  A
C1158      H1163   1.083       .  S
C1159      C1160   1.411       .  A
C1160      H1164   1.084       .  S
C1165      C1166   1.409       .  A
C1165      C1170   1.410       .  A
C1165      H1171   1.083       .  S
C1166      C1167   1.409       .  A
C1167      C1168   1.402       .  A
C1167      H1172   1.083   1_545  S
C1168      C1169   1.406       .  A
C1168      H1173   1.083       .  S
C1169      C1170   1.410       .  A
C1170      H1174   1.082       .  S
C1175      C1176   1.402       .  A
C1175      C1180   1.387       .  A
C1175      H1181   1.084       .  S
C1176      C1177   1.404       .  A
C1177      C1178   1.389       .  A
C1177      H1182   1.083       .  S
C1178      C1179   1.402       .  A
C1178      H1183   1.084       .  S
C1179      C1180   1.404       .  A
C1180      H1184   1.083       .  S
C1185      C1186   1.410       .  A
C1185      C1190   1.408       .  A
C1185      H1191   1.082       .  S
C1186      C1187   1.406       .  A
C1187      C1188   1.401       .  A
C1187      H1192   1.083       .  S
C1188      C1189   1.409       .  A
C1188      H1193   1.083       .  S
C1189      C1190   1.408       .  A
C1190      H1194   1.083       .  S
C1195      C1196   1.398       .  A
C1195      C1200   1.396       .  A
C1195      H1201   1.083       .  S
C1196      C1197   1.408       .  A
C1197      C1198   1.395       .  A
C1197      H1202   1.083       .  S
C1198      C1199   1.398       .  A
C1198      H1203   1.083       .  S
C1199      C1200   1.409       .  A
C1200      H1204   1.083       .  S
C1205      C1206   1.411       .  A
C1205      C1210   1.397       .  A
C1205      H1211   1.084       .  S
C1206      C1207   1.398       .  A
C1207      C1208   1.397       .  A
C1207      H1212   1.083       .  S
C1208      C1209   1.411       .  A
C1208      H1213   1.083       .  S
C1209      C1210   1.398       .  A
C1210      H1214   1.083       .  S
C1215      C1216   1.410       .  A
C1215      C1220   1.409       .  A
C1215      H1221   1.082       .  S
C1216      C1217   1.407       .  A
C1217      C1218   1.402       .  A
C1217      H1222   1.083       .  S
C1218      C1219   1.409       .  A
C1218      H1223   1.083       .  S
C1219      C1220   1.409       .  A
C1220      H1224   1.083       .  S
C1225      C1226   1.398       .  A
C1225      C1230   1.396       .  A
C1225      H1231   1.083       .  S
C1226      C1227   1.409       .  A
C1227      C1228   1.396       .  A
C1227      H1232   1.083       .  S
C1228      C1229   1.398       .  A
C1228      H1233   1.083       .  S
C1229      C1230   1.408       .  A
C1230      H1234   1.083       .  S
C1235      C1236   1.402       .  A
C1235      C1240   1.389       .  A
C1235      H1241   1.084       .  S
C1236      C1237   1.404       .  A
C1237      C1238   1.388       .  A
C1237      H1242   1.083       .  S
C1238      C1239   1.402       .  A
C1238      H1243   1.084       .  S
C1239      C1240   1.404       .  A
C1240      H1244   1.083       .  S
C1245      C1246   1.400       .  A
C1245      C1250   1.401       .  A
C1245      H1251   1.084       .  S
C1246      C1247   1.410       .  A
C1247      C1248   1.401       .  A
C1247      H1252   1.084       .  S
C1248      C1249   1.400       .  A
C1248      H1253   1.084       .  S
C1249      C1250   1.410       .  A
C1250      H1254   1.084       .  S
C1255      C1256   1.409       .  A
C1255      C1260   1.410       .  A
C1255      H1261   1.083       .  S
C1256      C1257   1.409       .  A
C1257      C1258   1.402       .  A
C1257      H1262   1.083   1_545  S
C1258      C1259   1.406       .  A
C1258      H1263   1.083       .  S
C1259      C1260   1.411       .  A
C1260      H1264   1.082       .  S
C1265      C1266   1.398       .  A
C1265      C1270   1.397       .  A
C1265      H1271   1.083       .  S
C1266      C1267   1.411       .  A
C1267      C1268   1.398       .  A
C1267      H1272   1.083       .  S
C1268      C1269   1.399       .  A
C1268      H1273   1.083       .  S
C1269      C1270   1.411       .  A
C1270      H1274   1.083       .  S
C1275      C1276   1.411   1_655  A
C1275      C1280   1.410       .  A
C1275      H1281   1.082       .  S
C1276      C1277   1.406   1_455  A
C1277      C1278   1.402       .  A
C1277      H1282   1.083   1_655  S
C1278      C1279   1.409       .  A
C1278      H1283   1.083       .  S
C1279      C1280   1.408       .  A
C1280      H1284   1.083       .  S
C1285      C1286   1.409       .  A
C1285      C1290   1.396       .  A
C1285      H1291   1.083       .  S
C1286      C1287   1.398       .  A
C1287      C1288   1.396       .  A
C1287      H1292   1.083       .  S
C1288      C1289   1.408       .  A
C1288      H1293   1.083       .  S
C1289      C1290   1.398       .  A
C1290      H1294   1.083       .  S
C1295      C1296   1.409       .  A
C1295      C1300   1.401       .  A
C1295      H1301   1.083       .  S
C1296      C1297   1.409       .  A
C1297      C1298   1.410       .  A
C1297      H1302   1.083       .  S
C1298      C1299   1.411       .  A
C1298      H1303   1.082       .  S
C1299      C1300   1.406       .  A
C1300      H1304   1.083       .  S
C1305      C1306   1.398       .  A
C1305      C1310   1.397       .  A
C1305      H1311   1.083       .  S
C1306      C1307   1.412       .  A
C1307      C1308   1.397       .  A
C1307      H1312   1.083       .  S
C1308      C1309   1.399       .  A
C1308      H1313   1.083       .  S
C1309      C1310   1.411       .  A
C1310      H1314   1.084       .  S
C1315      C1316   1.409       .  A
C1315      C1320   1.402       .  A
C1315      H1321   1.083       .  S
C1316      C1317   1.408       .  A
C1317      C1318   1.409       .  A
C1317      H1322   1.083       .  S
C1318      C1319   1.410       .  A
C1318      H1323   1.082       .  S
C1319      C1320   1.406       .  A
C1320      H1324   1.083       .  S
C1325      C1326   1.410       .  A
C1325      C1330   1.409       .  A
C1325      H1331   1.082       .  S
C1326      C1327   1.406       .  A
C1327      C1328   1.402       .  A
C1327      H1332   1.083       .  S
C1328      C1329   1.409       .  A
C1328      H1333   1.083       .  S
C1329      C1330   1.408       .  A
C1330      H1334   1.083       .  S
C1335      C1336   1.408       .  A
C1335      C1340   1.396       .  A
C1335      H1341   1.082       .  S
C1336      C1337   1.397       .  A
C1337      C1338   1.395       .  A
C1337      H1342   1.083       .  S
C1338      C1339   1.408       .  A
C1338      H1343   1.083       .  S
C1339      C1340   1.399       .  A
C1340      H1344   1.083       .  S
C1345      C1346   1.410       .  A
C1345      C1350   1.402       .  A
C1345      H1351   1.084       .  S
C1346      C1347   1.400       .  A
C1347      C1348   1.402       .  A
C1347      H1352   1.084       .  S
C1348      C1349   1.410       .  A
C1348      H1353   1.084       .  S
C1349      C1350   1.400       .  A
C1350      H1354   1.084       .  S
C1355      C1356   1.399       .  A
C1355      C1360   1.397       .  A
C1355      H1361   1.083       .  S
C1356      C1357   1.411       .  A
C1357      C1358   1.397       .  A
C1357      H1362   1.083       .  S
C1358      C1359   1.399       .  A
C1358      H1363   1.083       .  S
C1359      C1360   1.411       .  A
C1360      H1364   1.084       .  S
C1365      C1366   1.409       .  A
C1365      C1370   1.403       .  A
C1365      H1371   1.083       .  S
C1366      C1367   1.409       .  A
C1367      C1368   1.409   1_545  A
C1367      H1372   1.083       .  S
C1368      C1369   1.410       .  A
C1368      H1373   1.082       .  S
C1369      C1370   1.407   1_565  A
C1370      H1374   1.083       .  S
C1375      C1376   1.410       .  A
C1375      C1380   1.409       .  A
C1375      H1381   1.082       .  S
C1376      C1377   1.406       .  A
C1377      C1378   1.402       .  A
C1377      H1382   1.083       .  S
C1378      C1379   1.409       .  A
C1378      H1383   1.083       .  S
C1379      C1380   1.408       .  A
C1380      H1384   1.083       .  S
C1385      C1386   1.398       .  A
C1385      C1390   1.396       .  A
C1385      H1391   1.083       .  S
C1386      C1387   1.408       .  A
C1387      C1388   1.396       .  A
C1387      H1392   1.083       .  S
C1388      C1389   1.398       .  A
C1388      H1393   1.083       .  S
C1389      C1390   1.409       .  A
C1390      H1394   1.083       .  S
C1395      C1396   1.403       .  A
C1395      C1400   1.389       .  A
C1395      H1401   1.083       .  S
C1396      C1397   1.404       .  A
C1397      C1398   1.389       .  A
C1397      H1402   1.083       .  S
C1398      C1399   1.403       .  A
C1398      H1403   1.084       .  S
C1399      C1400   1.404       .  A
C1400      H1404   1.083       .  S
C1405      C1406   1.398       .  A
C1405      C1410   1.397       .  A
C1405      H1411   1.083       .  S
C1406      C1407   1.411       .  A
C1407      C1408   1.397       .  A
C1407      H1412   1.083       .  S
C1408      C1409   1.399       .  A
C1408      H1413   1.083       .  S
C1409      C1410   1.411       .  A
C1410      H1414   1.083       .  S
C1415      C1416   1.406       .  A
C1415      C1420   1.401       .  A
C1415      H1421   1.083       .  S
C1416      C1417   1.410       .  A
C1417      C1418   1.409       .  A
C1417      H1422   1.082       .  S
C1418      C1419   1.408       .  A
C1418      H1423   1.083       .  S
C1419      C1420   1.409       .  A
C1420      H1424   1.083       .  S
C1425      C1426   1.408       .  A
C1425      C1430   1.396       .  A
C1425      H1431   1.083       .  S
C1426      C1427   1.398       .  A
C1427      C1428   1.396       .  A
C1427      H1432   1.083       .  S
C1428      C1429   1.409       .  A
C1428      H1433   1.083       .  S
C1429      C1430   1.398       .  A
C1430      H1434   1.083       .  S
C1435      C1436   1.410       .  A
C1435      C1440   1.408   1_565  A
C1435      H1441   1.082       .  S
C1436      C1437   1.406   1_565  A
C1437      C1438   1.401       .  A
C1437      H1442   1.083       .  S
C1438      C1439   1.409       .  A
C1438      H1443   1.083       .  S
C1439      C1440   1.408       .  A
C1440      H1444   1.083       .  S
C1445      C1446   1.410       .  A
C1445      C1450   1.402       .  A
C1445      H1451   1.084       .  S
C1446      C1447   1.400       .  A
C1447      C1448   1.402       .  A
C1447      H1452   1.084       .  S
C1448      C1449   1.410       .  A
C1448      H1453   1.084       .  S
C1449      C1450   1.400       .  A
C1450      H1454   1.084       .  S
C1455      C1456   1.411       .  A
C1455      C1460   1.398       .  A
C1455      H1461   1.084       .  S
C1456      C1457   1.398       .  A
C1457      C1458   1.397       .  A
C1457      H1462   1.083       .  S
C1458      C1459   1.411       .  A
C1458      H1463   1.083       .  S
C1459      C1460   1.399       .  A
C1460      H1464   1.083       .  S
C1465      C1466   1.408       .  A
C1465      C1470   1.409       .  A
C1465      H1471   1.083       .  S
C1466      C1467   1.409       .  A
C1467      C1468   1.401       .  A
C1467      H1472   1.083       .  S
C1468      C1469   1.406       .  A
C1468      H1473   1.083       .  S
C1469      C1470   1.411       .  A
C1470      H1474   1.082       .  S
C1475      C1476   1.411       .  A
C1475      C1480   1.410       .  A
C1475      H1481   1.082       .  S
C1476      C1477   1.406       .  A
C1477      C1478   1.402       .  A
C1477      H1482   1.083       .  S
C1478      C1479   1.409       .  A
C1478      H1483   1.083       .  S
C1479      C1480   1.408       .  A
C1480      H1484   1.083       .  S
C1485      C1486   1.409       .  A
C1485      C1490   1.396       .  A
C1485      H1491   1.083       .  S
C1486      C1487   1.398       .  A
C1487      C1488   1.396       .  A
C1487      H1492   1.083       .  S
C1488      C1489   1.408       .  A
C1488      H1493   1.083       .  S
C1489      C1490   1.398       .  A
C1490      H1494   1.083       .  S
C1495      C1496   1.404       .  A
C1495      C1500   1.389       .  A
C1495      H1501   1.083       .  S
C1496      C1497   1.402       .  A
C1497      C1498   1.388       .  A
C1497      H1502   1.084       .  S
C1498      C1499   1.404       .  A
C1498      H1503   1.083       .  S
C1499      C1500   1.403       .  A
C1500      H1504   1.083       .  S
C1505      C1506   1.398       .  A
C1505      C1510   1.397       .  A
C1505      H1511   1.083       .  S
C1506      C1507   1.411       .  A
C1507      C1508   1.397       .  A
C1507      H1512   1.084       .  S
C1508      C1509   1.399       .  A
C1508      H1513   1.083       .  S
C1509      C1510   1.411       .  A
C1510      H1514   1.083       .  S
C1515      C1516   1.410       .  A
C1515      C1520   1.401       .  A
C1515      H1521   1.084       .  S
C1516      C1517   1.400       .  A
C1517      C1518   1.401       .  A
C1517      H1522   1.084       .  S
C1518      C1519   1.410       .  A
C1518      H1523   1.084       .  S
C1519      C1520   1.400       .  A
C1520      H1524   1.084       .  S
C1525      C1526   1.407       .  A
C1525      C1530   1.402       .  A
C1525      H1531   1.083       .  S
C1526      C1527   1.410   1_554  A
C1527      C1528   1.410       .  A
C1527      H1532   1.082       .  S
C1528      C1529   1.409   1_556  A
C1528      H1533   1.083       .  S
C1529      C1530   1.409       .  A
C1530      H1534   1.083       .  S
C1535      C1536   1.408       .  A
C1535      C1540   1.395       .  A
C1535      H1541   1.083       .  S
C1536      C1537   1.398       .  A
C1537      C1538   1.395       .  A
C1537      H1542   1.083       .  S
C1538      C1539   1.408       .  A
C1538      H1543   1.083       .  S
C1539      C1540   1.397       .  A
C1540      H1544   1.083       .  S
C1545      C1546   1.409       .  A
C1545      C1550   1.410       .  A
C1545      H1551   1.083   1_556  S
C1546      C1547   1.409       .  A
C1547      C1548   1.401       .  A
C1547      H1552   1.083       .  S
C1548      C1549   1.406       .  A
C1548      H1553   1.083       .  S
C1549      C1550   1.410       .  A
C1550      H1554   1.082   1_556  S
C1555      C1556   1.398       .  A
C1555      C1560   1.397       .  A
C1555      H1561   1.083       .  S
C1556      C1557   1.411       .  A
C1557      C1558   1.398       .  A
C1557      H1562   1.084       .  S
C1558      C1559   1.398       .  A
C1558      H1563   1.083       .  S
C1559      C1560   1.412       .  A
C1560      H1564   1.083       .  S
C1565      C1566   1.406       .  A
C1565      C1570   1.401       .  A
C1565      H1571   1.083       .  S
C1566      C1567   1.410       .  A
C1567      C1568   1.409       .  A
C1567      H1572   1.082       .  S
C1568      C1569   1.408       .  A
C1568      H1573   1.083       .  S
C1569      C1570   1.409       .  A
C1570      H1574   1.083       .  S
C1575      C1576   1.398       .  A
C1575      C1580   1.396       .  A
C1575      H1581   1.083       .  S
C1576      C1577   1.408       .  A
C1577      C1578   1.395       .  A
C1577      H1582   1.083       .  S
C1578      C1579   1.398       .  A
C1578      H1583   1.083       .  S
C1579      C1580   1.409       .  A
C1580      H1584   1.083       .  S
C1585      C1586   1.408       .  A
C1585      C1590   1.409   1_545  A
C1585      H1591   1.083       .  S
C1586      C1587   1.409       .  A
C1587      C1588   1.402   1_655  A
C1587      H1592   1.083       .  S
C1588      C1589   1.406   1_545  A
C1588      H1593   1.083       .  S
C1589      C1590   1.410   1_455  A
C1590      H1594   1.082       .  S
C1595      C1596   1.405       .  A
C1595      C1600   1.389   1_655  A
C1595      H1601   1.083       .  S
C1596      C1597   1.402   1_655  A
C1597      C1598   1.389       .  A
C1597      H1602   1.084       .  S
C1598      C1599   1.405       .  A
C1598      H1603   1.083       .  S
C1599      C1600   1.402       .  A
C1600      H1604   1.083       .  S
C1605      C1606   1.411       .  A
C1605      C1610   1.397       .  A
C1605      H1611   1.084       .  S
C1606      C1607   1.398       .  A
C1607      C1608   1.397       .  A
C1607      H1612   1.083       .  S
C1608      C1609   1.411       .  A
C1608      H1613   1.084       .  S
C1609      C1610   1.398       .  A
C1610      H1614   1.083       .  S
C1615      C1616   1.404       .  A
C1615      C1620   1.389       .  A
C1615      H1621   1.083       .  S
C1616      C1617   1.403   1_556  A
C1617      C1618   1.389       .  A
C1617      H1622   1.084       .  S
C1618      C1619   1.404       .  A
C1618      H1623   1.083       .  S
C1619      C1620   1.402   1_554  A
C1620      H1624   1.084       .  S
C1625      C1626   1.400       .  A
C1625      C1630   1.402       .  A
C1625      H1631   1.084       .  S
C1626      C1627   1.410       .  A
C1627      C1628   1.401       .  A
C1627      H1632   1.084       .  S
C1628      C1629   1.400       .  A
C1628      H1633   1.084       .  S
C1629      C1630   1.410       .  A
C1630      H1634   1.084       .  S
C1635      C1636   1.410   1_556  A
C1635      C1640   1.410   1_565  A
C1635      H1641   1.082       .  S
C1636      C1637   1.407   1_565  A
C1637      C1638   1.402       .  A
C1637      H1642   1.083       .  S
C1638      C1639   1.409       .  A
C1638      H1643   1.083       .  S
C1639      C1640   1.409   1_554  A
C1640      H1644   1.083       .  S
C1645      C1646   1.411       .  A
C1645      C1650   1.410       .  A
C1645      H1651   1.082   1_556  S
C1646      C1647   1.406       .  A
C1647      C1648   1.402       .  A
C1647      H1652   1.083       .  S
C1648      C1649   1.409       .  A
C1648      H1653   1.083       .  S
C1649      C1650   1.409       .  A
C1650      H1654   1.083   1_556  S
C1655      C1656   1.398       .  A
C1655      C1660   1.396       .  A
C1655      H1661   1.083       .  S
C1656      C1657   1.408       .  A
C1657      C1658   1.395       .  A
C1657      H1662   1.083       .  S
C1658      C1659   1.398       .  A
C1658      H1663   1.083       .  S
C1659      C1660   1.409       .  A
C1660      H1664   1.083       .  S
