geometry optimzed in LAMMPS
_audit_creation_date              2020-12-01 
_audit_creation_method            'lammps2cif' 
_symmetry_space_group_name_H-M    'P1' 
_symmetry_Int_Tables_number       1 
_symmetry_cell_setting            triclinic 
loop_ 
_symmetry_equiv_pos_as_xyz 
  x,y,z 
_cell_length_a                    78.65840289 
_cell_length_b                    32.1869343307673 
_cell_length_c                    38.62601515022562 
_cell_angle_alpha                 89.92506828027382 
_cell_angle_beta                  89.81775956513493 
_cell_angle_gamma                 90.26633363610547 
loop_ 
_atom_site_label 
_atom_site_type_symbol 
_atom_site_fract_x 
_atom_site_fract_y 
_atom_site_fract_z 
_atom_site_charge 
O1          O  0.76986616  0.74043614  0.67158882    -0.82500
C2          C  0.81005123  0.81155055  0.77018118     0.96800
O3          O  0.80520785  0.77579892  0.76122084    -0.71700
O4          O  0.78377664  0.72202104  0.73568808    -0.75300
Al5        Al  0.80113761  0.75748548  0.71564626     1.49000
C6          C  0.76942222  0.73055158  0.74878617     0.92100
O7          O  0.75707716  0.84036620  0.71779171    -0.81500
O8          O  0.78236342  0.87290887  0.67159275    -0.75000
Al9        Al  0.76576199  0.79121923  0.69632646     1.90100
O10         O  0.77952729  0.86649761  0.74276145    -0.74100
O11         O  0.81330938  0.84259268  0.67734613    -0.74000
O12         O  0.81023323  0.84115414  0.74857761    -0.79600
O13         O  0.82197858  0.78354023  0.69883748    -0.77800
O14         O  0.78757162  0.80016972  0.70674223    -1.13900
O15         O  0.79775669  0.73488029  0.67101090    -0.73100
C16         C  0.78329102  0.72360511  0.66015840     0.97600
C17         C  0.76387472  0.86728047  0.73708197     0.94000
Al18       Al  0.79567484  0.85150594  0.70963675     1.55600
O19         O  0.76155945  0.76255402  0.73891474    -0.77800
C20         C  0.82507447  0.81704634  0.68264991     0.98100
C21         C  0.77237025  0.85683039  0.64958372     0.93000
O22         O  0.76730734  0.81968624  0.65314007    -0.83100
O23         O  0.97141741  0.99539333  0.66178125    -0.82500
C24         C  0.93734791  0.91125273  0.76532938     0.96800
O25         O  0.94220058  0.94767528  0.75820293    -0.71700
O26         O  0.96223723  0.00539612  0.73168422    -0.75300
Al27       Al  0.94352468  0.97175059  0.71363319     1.49000
C28         C  0.97752938  0.99594307  0.73834835     0.92100
O29         O  0.98732878  0.89006786  0.69654980    -0.81500
O30         O  0.95976752  0.86193278  0.65576023    -0.75000
Al31       Al  0.97720718  0.94158346  0.68119842     1.90100
O32         O  0.96655273  0.86131051  0.72575553    -0.74100
O33         O  0.92917827  0.89123947  0.67163526    -0.74000
O34         O  0.93622392  0.88416802  0.74165811    -0.79600
O35         O  0.92180249  0.94716009  0.70010532    -0.77800
O36         O  0.95635552  0.93079969  0.69734317    -1.13900
O37         O  0.94385701  0.99987611  0.67070923    -0.73100
C38         C  0.95723647  0.01271520  0.65593644     0.97600
C39         C  0.98179230  0.86156877  0.71622471     0.94000
Al40       Al  0.94854958  0.87904924  0.69838082     1.55600
O41         O  0.98426595  0.96520553  0.72362009    -0.77800
C42         C  0.91783114  0.91601933  0.68160295     0.98100
C43         C  0.96848083  0.88059437  0.63271666     0.93000
O44         O  0.97284954  0.91806521  0.63699622    -0.83100
O45         O  0.77546930  0.98262279  0.05845434    -0.82500
C46         C  0.81128207  0.89589367  0.96169681     0.96800
O47         O  0.80794390  0.93280144  0.96983057    -0.71700
O48         O  0.78841033  0.99117931  0.99344832    -0.75300
Al49       Al  0.80510964  0.95476565  0.01428178     1.49000
C50         C  0.77335592  0.98466692  0.98286376     0.92100
O51         O  0.75820575  0.87872371  0.02273202    -0.81500
O52         O  0.78310418  0.84715273  0.06617694    -0.75000
Al53       Al  0.76930285  0.92951313  0.03851246     1.90100
O54         O  0.77892181  0.84987750  0.99444916    -0.74100
O55         O  0.81524479  0.86929934  0.05485917    -0.74000
O56         O  0.81036091  0.86711689  0.98404425    -0.79600
O57         O  0.82507689  0.92661371  0.03137747    -0.77800
O58         O  0.79041297  0.91555797  0.02631380    -1.13900
O59         O  0.80336138  0.98086159  0.05779966    -0.73100
C60         C  0.78969551  0.99685540  0.06840082     0.97600
C61         C  0.76374397  0.84941102  0.00413697     0.94000
Al62       Al  0.79642094  0.86260742  0.02515711     1.55600
O63         O  0.76483594  0.95428176  0.99462354    -0.77800
C64         C  0.82742266  0.89376436  0.04879260     0.98100
C65         C  0.77481672  0.86828719  0.08834206     0.93000
O66         O  0.77186025  0.90631035  0.08300219    -0.83100
O67         O  0.97768469  0.74627197  0.05591048    -0.82500
C68         C  0.93781118  0.81688384  0.95475116     0.96800
O69         O  0.94445453  0.78232521  0.96160761    -0.71700
O70         O  0.96789265  0.73261809  0.98624438    -0.75300
Al71       Al  0.94792335  0.75970113  0.00610575     1.49000
C72         C  0.98224888  0.74782670  0.97787492     0.92100
O73         O  0.98723266  0.85497759  0.01904002    -0.81500
O74         O  0.95953641  0.87541183  0.06079658    -0.75000
Al75       Al  0.98023196  0.80121804  0.03558149     1.90100
O76         O  0.96497555  0.87703501  0.99070493    -0.74100
O77         O  0.93099866  0.83525141  0.04935243    -0.74000
O78         O  0.93558432  0.84346642  0.97844990    -0.79600
O79         O  0.92539914  0.77721071  0.02210662    -0.77800
O80         O  0.95887553  0.80480041  0.02084175    -1.13900
O81         O  0.95055086  0.73251062  0.04883596    -0.73100
C82         C  0.96464630  0.72430538  0.06268079     0.97600
C83         C  0.98020114  0.88153415  0.99970305     0.94000
Al84       Al  0.94853593  0.85358688  0.02005431     1.55600
O85         O  0.98778328  0.77990329  0.99272039    -0.77800
C86         C  0.92065241  0.80697022  0.04141623     0.98100
C87         C  0.96926885  0.86020971  0.08353479     0.93000
O88         O  0.97516297  0.82395876  0.07988033    -0.83100
O89         O  0.02604720  0.57503534  0.82895020    -0.82500
C90         C  0.06001662  0.58359970  0.70093030     0.96800
O91         O  0.06091322  0.61162309  0.72395379    -0.71700
O92         O  0.03047891  0.63356131  0.73970185    -0.75300
Al93       Al  0.04856472  0.61709830  0.76736316     1.49000
C94         C  0.01566796  0.63520010  0.75148011     0.92100
O95         O  0.01344743  0.53293597  0.74208189    -0.81500
O96         O  0.05367261  0.49707090  0.79640739    -0.75000
Al97       Al  0.02055944  0.55435908  0.78490105     1.90100
O98         O  0.03509759  0.49080495  0.73487003    -0.74100
O99         O  0.07569463  0.54937724  0.76710524    -0.74000
O100        O  0.05553436  0.54723786  0.70881686    -0.79600
O101        O  0.06768597  0.60583327  0.79423738    -0.77800
O102        O  0.04119457  0.56523062  0.76864770    -1.13900
O103        O  0.03721058  0.63382144  0.81069727    -0.73100
C104        C  0.02973850  0.61266546  0.83421375     0.97600
C105        C  0.01997680  0.50174272  0.72754386     0.94000
Al106      Al  0.05408438  0.52422110  0.75317484     1.55600
O107        O  0.01035623  0.60704519  0.77176901    -0.77800
C108        C  0.07919418  0.58102739  0.78545171     0.98100
C109        C  0.04013424  0.48370889  0.81003044     0.93000
O110        O  0.02595676  0.49991393  0.80257103    -0.83100
O111        O  0.22612241  0.67703074  0.83750284    -0.82500
C112        C  0.18848029  0.67940895  0.71249060     0.96800
O113        O  0.18734725  0.65114983  0.73523496    -0.71700
O114        O  0.21750524  0.62437184  0.74754197    -0.75300
Al115      Al  0.20038466  0.64281044  0.77709435     1.49000
C116        C  0.23284823  0.62255852  0.75602192     0.92100
O117        O  0.23695796  0.72348244  0.74997000    -0.81500
O118        O  0.19894617  0.76346581  0.80817430    -0.75000
Al119      Al  0.23043550  0.70086782  0.79315327     1.90100
O120        O  0.21595474  0.76764687  0.74509606    -0.74100
O121        O  0.17505402  0.71416365  0.78021858    -0.74000
O122        O  0.19404129  0.71482477  0.72037478    -0.79600
O123        O  0.18208570  0.65616452  0.80606171    -0.77800
O124        O  0.20914332  0.69345267  0.77885031    -1.13900
O125        O  0.21187473  0.62289409  0.81819261    -0.73100
C126        C  0.22087244  0.64004995  0.84140892     0.97600
C127        C  0.23033454  0.75430283  0.73520877     0.94000
Al128      Al  0.19691851  0.73665555  0.76494838     1.55600
O129        O  0.23908057  0.64891951  0.77658862    -0.77800
C130        C  0.17094668  0.68205116  0.79752512     0.98100
C131        C  0.21306871  0.77470172  0.82058247     0.93000
O132        O  0.22651343  0.75496091  0.81321269    -0.83100
O133        O  0.01901371  0.67604879  0.38909437    -0.82500
C134        C  0.05932217  0.66983711  0.50898701     0.96800
O135        O  0.05877877  0.64100466  0.48664991    -0.71700
O136        O  0.02714254  0.62429720  0.47977762    -0.75300
Al137      Al  0.04390602  0.63515297  0.44700221     1.49000
C138        C  0.01165914  0.62463801  0.47254205     0.92100
O139        O  0.01312863  0.72882729  0.47562783    -0.81500
O140        O  0.05181434  0.75097057  0.41113306    -0.75000
Al141      Al  0.01714360  0.70189480  0.43283604     1.90100
O142        O  0.03665899  0.76568715  0.47551101    -0.74100
O143        O  0.07320223  0.69603998  0.43927864    -0.74000
O144        O  0.05564086  0.70651163  0.50067813    -0.79600
O145        O  0.06180644  0.64122617  0.41494262    -0.77800
O146        O  0.03815132  0.68797916  0.44478226    -1.13900
O147        O  0.02961396  0.61743672  0.40823896    -0.73100
C148        C  0.02120602  0.63744019  0.38566264     0.97600
C149        C  0.02164208  0.75927379  0.48683437     0.94000
Al150      Al  0.05321976  0.72689914  0.45551638     1.55600
O151        O  0.00593031  0.65232057  0.45228543    -0.77800
C152        C  0.07476147  0.66271858  0.42188094     0.98100
C153        C  0.03828646  0.76672863  0.39972709     0.93000
O154        O  0.02386678  0.75365889  0.41020231    -0.83100
O155        O  0.22884094  0.58997940  0.40739373    -0.82500
C156        C  0.18476280  0.59414722  0.52132269     0.96800
O157        O  0.18541285  0.62262846  0.49864124    -0.71700
O158        O  0.21669419  0.64398106  0.49517645    -0.75300
Al159      Al  0.20126656  0.62941149  0.46062366     1.49000
C160        C  0.23236903  0.64456161  0.48994929     0.92100
O161        O  0.23285472  0.54001854  0.49555780    -0.81500
O162        O  0.19738951  0.51096900  0.42592976    -0.75000
Al163      Al  0.22983684  0.56604234  0.45173299     1.90100
O164        O  0.21000991  0.50067139  0.49197154    -0.74100
O165        O  0.17340027  0.56454870  0.44983975    -0.74000
O166        O  0.18892368  0.55754399  0.51375933    -0.79600
O167        O  0.18479994  0.62002559  0.42662497    -0.77800
O168        O  0.20815506  0.57730197  0.46035205    -1.13900
O169        O  0.21605961  0.64762217  0.42263396    -0.73100
C170        C  0.22503756  0.62724708  0.40118871     0.97600
C171        C  0.22467225  0.50778110  0.50452316     0.94000
Al172      Al  0.19348890  0.53657417  0.46940865     1.55600
O173        O  0.23921809  0.61728888  0.47094104    -0.77800
C174        C  0.17196068  0.59759556  0.43199088     0.98100
C175        C  0.21190679  0.49718602  0.41771566     0.93000
O176        O  0.22531124  0.51369510  0.42969861    -0.83100
O177        O  0.72481388  0.15797413  0.84308894    -0.82500
C178        C  0.68878378  0.14231675  0.71630803     0.96800
O179        O  0.68740293  0.11874896  0.74230915    -0.71700
O180        O  0.71806151  0.09715344  0.75628621    -0.75300
Al181      Al  0.70049996  0.11652353  0.78396953     1.49000
C182        C  0.73320862  0.09618645  0.76630931     0.92100
O183        O  0.73698867  0.19889555  0.75409586    -0.81500
O184        O  0.69634088  0.23859477  0.80329561    -0.75000
Al185      Al  0.72949904  0.17864375  0.79758354     1.90100
O186        O  0.71512491  0.23849506  0.74262011    -0.74100
O187        O  0.67430395  0.18441336  0.77848942    -0.74000
O188        O  0.69468115  0.17862554  0.71968517    -0.79600
O189        O  0.68195929  0.13207485  0.81142477    -0.77800
O190        O  0.70867465  0.16761202  0.78182179    -1.13900
O191        O  0.71186435  0.10120721  0.82585794    -0.73100
C192        C  0.72033990  0.12067032  0.84836682     0.97600
C193        C  0.73044867  0.22812996  0.73713181     0.94000
Al194      Al  0.69611351  0.20709562  0.76269839     1.55600
O195        O  0.73920169  0.12540150  0.78464496    -0.77800
C196        C  0.67059999  0.15571028  0.79991759     0.98100
C197        C  0.70948444  0.25196869  0.81815252     0.93000
O198        O  0.72375649  0.23415842  0.81412457    -0.83100
O199        O  0.52281494  0.06269560  0.84502430    -0.82500
C200        C  0.55817945  0.07989101  0.71679938     0.96800
O201        O  0.56030478  0.10227212  0.74331020    -0.71700
O202        O  0.53007647  0.12525085  0.75998314    -0.75300
Al203      Al  0.54768935  0.10356736  0.78598229     1.49000
C204        C  0.51471107  0.12458973  0.76884722     0.92100
O205        O  0.51060746  0.01984059  0.75640030    -0.81500
O206        O  0.55180586  0.98085990  0.80230461    -0.75000
Al207      Al  0.51844144  0.04127118  0.79948576     1.90100
O208        O  0.53259542  0.98192917  0.74292796    -0.74100
O209        O  0.57346196  0.03557250  0.77694361    -0.74000
O210        O  0.55234281  0.04343651  0.71983889    -0.79600
O211        O  0.56648726  0.08615920  0.81215936    -0.77800
O212        O  0.53916751  0.05264312  0.78300319    -1.13900
O213        O  0.53667808  0.11836685  0.82851831    -0.73100
C214        C  0.52755700  0.09971175  0.85057050     0.97600
C215        C  0.51710155  0.99108676  0.73871716     0.94000
Al216      Al  0.55152730  0.01353789  0.76234226     1.55600
O217        O  0.50863019  0.09420988  0.78593255    -0.77800
C218        C  0.57761390  0.06282071  0.79916642     0.98100
C219        C  0.53903674  0.96792453  0.81894586     0.93000
O220        O  0.52474335  0.98620668  0.81662837    -0.83100
O221        O  0.72421687  0.05694116  0.40212446    -0.82500
C222        C  0.68271137  0.08195374  0.51864347     0.96800
O223        O  0.68246996  0.10504372  0.49214499    -0.71700
O224        O  0.71389405  0.12332010  0.48329783    -0.75300
Al225      Al  0.69742409  0.10429987  0.45281434     1.49000
C226        C  0.72964606  0.11918255  0.48007573     0.92100
O227        O  0.72899154  0.01437902  0.49336809    -0.81500
O228        O  0.69058779  0.98264874  0.43303950    -0.75000
Al229      Al  0.72511373  0.03668174  0.44821360     1.90100
O230        O  0.70512050  0.97972736  0.49729554    -0.74100
O231        O  0.66902311  0.04076893  0.45394488    -0.74000
O232        O  0.68649501  0.04398153  0.51596753    -0.79600
O233        O  0.67960931  0.09100154  0.42205662    -0.77800
O234        O  0.70386723  0.05182518  0.45787467    -1.13900
O235        O  0.71145808  0.11581788  0.41298361    -0.73100
C236        C  0.72074150  0.09376364  0.39361292     0.97600
C237        C  0.72030966  0.98553012  0.50688222     0.94000
Al238      Al  0.68895296  0.01471876  0.47368075     1.55600
O239        O  0.73572874  0.08806950  0.46421614    -0.77800
C240        C  0.66709507  0.06930218  0.43168260     0.98100
C241        C  0.70423109  0.96725460  0.42148994     0.93000
O242        O  0.71857426  0.98282826  0.42960007    -0.83100
O243        O  0.51839735  0.15942452  0.40097589    -0.82500
C244        C  0.55955628  0.14399546  0.51884884     0.96800
O245        O  0.56113074  0.12175748  0.49202241    -0.71700
O246        O  0.53090764  0.09422935  0.48194602    -0.75300
Al247      Al  0.54655074  0.11885108  0.45211685     1.49000
C248        C  0.51512696  0.09416527  0.47766649     0.92100
O249        O  0.51049728  0.19589745  0.49275229    -0.81500
O250        O  0.54718238  0.24271078  0.43441113    -0.75000
Al251      Al  0.51585362  0.17743586  0.44745197     1.90100
O252        O  0.53184218  0.23908201  0.49850823    -0.74100
O253        O  0.57155538  0.19039508  0.45511334    -0.74000
O254        O  0.55378731  0.18048220  0.51657889    -0.79600
O255        O  0.56366102  0.13863868  0.42196524    -0.77800
O256        O  0.53750958  0.16883468  0.45772061    -1.13900
O257        O  0.53332451  0.10368401  0.41164290    -0.73100
C258        C  0.52312647  0.12343847  0.39243843     0.97600
C259        C  0.51711129  0.22693903  0.50737468     0.94000
Al260      Al  0.55017001  0.20996207  0.47464621     1.55600
O261        O  0.50792131  0.12351914  0.46171938    -0.77800
C262        C  0.57509349  0.16291729  0.43267889     0.98100
C263        C  0.53275853  0.25374789  0.42335911     0.93000
O264        O  0.51949525  0.23299492  0.43077281    -0.83100
O265        O  0.72640406  0.66186125  0.33846209    -0.82500
C266        C  0.68716761  0.64665830  0.21681264     0.96800
O267        O  0.68682228  0.62082843  0.24160373    -0.71700
O268        O  0.71718846  0.59790953  0.25419802    -0.75300
Al269      Al  0.70041204  0.61819711  0.28334957     1.49000
C270        C  0.73249056  0.59632201  0.26266431     0.92100
O271        O  0.73576825  0.69678193  0.24704327    -0.81500
O272        O  0.69847451  0.74193969  0.30544655    -0.75000
Al273      Al  0.73009583  0.67930532  0.29231626     1.90100
O274        O  0.71439322  0.73989769  0.24100067    -0.74100
O275        O  0.67442674  0.68857025  0.28303388    -0.74000
O276        O  0.69221635  0.68338131  0.22169506    -0.79600
O277        O  0.68214862  0.63323973  0.31208086    -0.77800
O278        O  0.70862773  0.66933975  0.28041038    -1.13900
O279        O  0.71300189  0.60390470  0.32551975    -0.73100
C280        C  0.72224977  0.62499330  0.34611099     0.97600
C281        C  0.72893868  0.72690579  0.23162381     0.94000
Al282      Al  0.69581952  0.71029732  0.26435797     1.55600
O283        O  0.73900901  0.62528015  0.28027835    -0.77800
C284        C  0.67075973  0.65813058  0.30272812     0.98100
C285        C  0.71277995  0.75471446  0.31595551     0.93000
O286        O  0.72621618  0.73539368  0.30786556    -0.83100
O287        O  0.52185137  0.56135256  0.34634286    -0.82500
C288        C  0.55753772  0.58163024  0.21885288     0.96800
O289        O  0.55957424  0.60380823  0.24554013    -0.71700
O290        O  0.52937202  0.62488975  0.26291075    -0.75300
Al291      Al  0.54704587  0.60374770  0.28850820     1.49000
C292        C  0.51375722  0.62169436  0.26910023     0.92100
O293        O  0.51057664  0.51845091  0.25736031    -0.81500
O294        O  0.55174173  0.48064535  0.30382133    -0.75000
Al295      Al  0.51803706  0.54007087  0.30065282     1.90100
O296        O  0.53286401  0.48176402  0.24385713    -0.74100
O297        O  0.57343569  0.53688490  0.27922915    -0.74000
O298        O  0.55221265  0.54469223  0.22182114    -0.79600
O299        O  0.56608739  0.58714080  0.31439982    -0.77800
O300        O  0.53884082  0.55247192  0.28488599    -1.13900
O301        O  0.53595808  0.61729944  0.33138599    -0.73100
C302        C  0.52673327  0.59797815  0.35286660     0.97600
C303        C  0.51730675  0.49024128  0.23949460     0.94000
Al304      Al  0.55153180  0.51408666  0.26406277     1.55600
O305        O  0.50785665  0.59171755  0.28669386    -0.77800
C306        C  0.57741443  0.56438542  0.30143246     0.98100
C307        C  0.53885352  0.46773846  0.32021588     0.93000
O308        O  0.52460263  0.48595461  0.31770242    -0.83100
O309        O  0.72606239  0.56905120  0.90292728    -0.82500
C310        C  0.68683205  0.55853203  0.02539589     0.96800
O311        O  0.68625691  0.58872447  0.00438249    -0.71700
O312        O  0.71706355  0.61476696  0.99499191    -0.75300
Al313      Al  0.69990649  0.59996329  0.96372387     1.49000
C314        C  0.73230718  0.61728107  0.98566875     0.92100
O315        O  0.73455311  0.51114314  0.98721042    -0.81500
O316        O  0.69674030  0.48269823  0.92356724    -0.75000
Al317      Al  0.72914763  0.54042748  0.94555405     1.90100
O318        O  0.71207384  0.47050058  0.98645797    -0.74100
O319        O  0.67340071  0.53104278  0.95340171    -0.74000
O320        O  0.69117051  0.52303716  0.01496798    -0.79600
O321        O  0.68175460  0.59135571  0.93328349    -0.77800
O322        O  0.70773707  0.54865010  0.95895777    -1.13900
O323        O  0.71215283  0.62236195  0.92425699    -0.73100
C324        C  0.72113876  0.60631862  0.90048585     0.97600
C325        C  0.72693640  0.47848058  0.99711504     0.94000
Al326      Al  0.69433762  0.50543711  0.96866049     1.55600
O327        O  0.73847208  0.59012999  0.96573387    -0.77800
C328        C  0.67032542  0.56439448  0.93718162     0.98100
C329        C  0.71098975  0.47198549  0.91130512     0.93000
O330        O  0.72453530  0.48969213  0.92118312    -0.83100
O331        O  0.52120095  0.65162434  0.90191927    -0.82500
C332        C  0.56277028  0.64657907  0.01944237     0.96800
O333        O  0.56499218  0.62310874  0.99362248    -0.71700
O334        O  0.53455610  0.59464567  0.98569130    -0.75300
Al335      Al  0.55028598  0.61691163  0.95447231     1.49000
C336        C  0.51872989  0.59514002  0.98179519     0.92100
O337        O  0.51480297  0.70200714  0.99076520    -0.81500
O338        O  0.55168069  0.73899994  0.92821450    -0.75000
Al339      Al  0.51971212  0.67624589  0.94693445     1.90100
O340        O  0.53734973  0.74174526  0.99209716    -0.74100
O341        O  0.57582521  0.68730438  0.95232283    -0.74000
O342        O  0.55799592  0.68367024  0.01491780    -0.79600
O343        O  0.56719018  0.63340618  0.92272243    -0.77800
O344        O  0.54148342  0.66760393  0.95694268    -1.13900
O345        O  0.53727981  0.59886965  0.91573319    -0.73100
C346        C  0.52678262  0.61566653  0.89554426     0.97600
C347        C  0.52239346  0.73391771  0.00202388     0.94000
Al348      Al  0.55474712  0.70951523  0.97065219     1.55600
O349        O  0.51159470  0.62473892  0.96597804    -0.77800
C350        C  0.57885774  0.65808753  0.93128053     0.98100
C351        C  0.53715683  0.74922161  0.91677880     0.93000
O352        O  0.52392535  0.72889820  0.92530495    -0.83100
O353        O  0.26732158  0.76538276  0.17092005    -0.82500
C354        C  0.30715406  0.83837855  0.26999462     0.96800
O355        O  0.30091443  0.80351371  0.26252239    -0.71700
O356        O  0.27803903  0.75268451  0.23840637    -0.75300
Al357      Al  0.29742673  0.78169106  0.21822748     1.49000
C358        C  0.26378574  0.76674381  0.24827511     0.92100
O359        O  0.25673282  0.87339607  0.20685988    -0.81500
O360        O  0.28420413  0.89616146  0.16372228    -0.75000
Al361      Al  0.26437501  0.82031763  0.19061537     1.90100
O362        O  0.27889489  0.89739101  0.23442138    -0.74100
O363        O  0.31359851  0.85987877  0.17623326    -0.74000
O364        O  0.30849539  0.86651233  0.24711142    -0.79600
O365        O  0.31954110  0.80136660  0.20239589    -0.77800
O366        O  0.28586092  0.82599816  0.20430240    -1.13900
O367        O  0.29479210  0.75501878  0.17531106    -0.73100
C368        C  0.28046345  0.74434444  0.16367194     0.97600
C369        C  0.26353496  0.90024344  0.22625804     0.94000
Al370      Al  0.29555932  0.87579331  0.20511462     1.55600
O371        O  0.25764343  0.79857582  0.23411166    -0.77800
C372        C  0.32416267  0.83238261  0.18434985     0.98100
C373        C  0.27443832  0.87959772  0.14147698     0.93000
O374        O  0.26875650  0.84312690  0.14605380    -0.83100
O375        O  0.47521729  0.97994366  0.17241498    -0.82500
C376        C  0.43696602  0.89619682  0.26965327     0.96800
O377        O  0.44299547  0.93232496  0.26559207    -0.71700
O378        O  0.46487622  0.98860375  0.24285196    -0.75300
Al379      Al  0.44575257  0.96001720  0.22212298     1.49000
C380        C  0.47971527  0.97640645  0.25005518     0.92100
O381        O  0.48673111  0.87169833  0.20541748    -0.81500
O382        O  0.45933590  0.85048430  0.16103369    -0.75000
Al383      Al  0.47892138  0.92500196  0.19050383     1.90100
O384        O  0.46425443  0.84464321  0.23056291    -0.74100
O385        O  0.43004584  0.88669860  0.17386548    -0.74000
O386        O  0.43444920  0.87320918  0.24365705    -0.79600
O387        O  0.42368044  0.94086643  0.20563388    -0.77800
O388        O  0.45749723  0.91784204  0.20447718    -1.13900
O389        O  0.44793835  0.99155681  0.18091568    -0.73100
C390        C  0.46201565  0.00153223  0.16720523     0.97600
C391        C  0.47978159  0.84331074  0.22318923     0.94000
Al392      Al  0.44780878  0.86806255  0.20224207     1.55600
O393        O  0.48595779  0.94570265  0.23437433    -0.77800
C394        C  0.41927885  0.91244106  0.18467474     0.98100
C395        C  0.46919339  0.86749941  0.13931216     0.93000
O396        O  0.47492222  0.90369095  0.14490063    -0.83100
O397        O  0.27322031  0.00740758  0.55683076    -0.82500
C398        C  0.31046236  0.92326371  0.46066786     0.96800
O399        O  0.30579960  0.95972839  0.46751332    -0.71700
O400        O  0.28566377  0.01782038  0.49159696    -0.75300
Al401      Al  0.30299890  0.98213473  0.51180862     1.49000
C402        C  0.27055705  0.01059200  0.48158914     0.92100
O403        O  0.25753480  0.90193317  0.51947230    -0.81500
O404        O  0.28224046  0.87290934  0.56486759    -0.75000
Al405      Al  0.26759822  0.95394675  0.53628300     1.90100
O406        O  0.27933791  0.87438278  0.49301158    -0.74100
O407        O  0.31387879  0.90050735  0.55559914    -0.74000
O408        O  0.31044519  0.89545441  0.48401804    -0.79600
O409        O  0.32359626  0.95558431  0.52858081    -0.77800
O410        O  0.28887592  0.94196100  0.52440174    -1.13900
O411        O  0.30117450  0.00766230  0.55505637    -0.73100
C412        C  0.28743176  0.02234788  0.56642837     0.97600
C413        C  0.26385826  0.87394250  0.50034059     0.94000
Al414      Al  0.29592885  0.88993105  0.52456228     1.55600
O415        O  0.26276055  0.97868229  0.49247903    -0.77800
C416        C  0.32606446  0.92433372  0.54795325     0.98100
C417        C  0.27345613  0.89355913  0.58651911     0.93000
O418        O  0.27020120  0.93122486  0.58075426    -0.83100
O419        O  0.46777015  0.73337624  0.56338157    -0.82500
C420        C  0.43499574  0.83250968  0.46932870     0.96800
O421        O  0.43890231  0.79462969  0.47243017    -0.71700
O422        O  0.45658159  0.72980833  0.49389046    -0.75300
Al423      Al  0.43977386  0.76515789  0.51519319     1.49000
C424        C  0.47216027  0.73442591  0.48654845     0.92100
O425        O  0.48625987  0.83775948  0.53024915    -0.81500
O426        O  0.46076074  0.86647418  0.57874385    -0.75000
Al427      Al  0.47514587  0.78657803  0.54529717     1.90100
O428        O  0.46477261  0.87183309  0.50854893    -0.74100
O429        O  0.42883373  0.84095431  0.56606548    -0.74000
O430        O  0.43382612  0.85525293  0.49596869    -0.79600
O431        O  0.41922674  0.79160685  0.53220318    -0.77800
O432        O  0.45420175  0.80181739  0.53306809    -1.13900
O433        O  0.43992122  0.73305557  0.55602253    -0.73100
C434        C  0.45315694  0.71785583  0.56945534     0.97600
C435        C  0.48036041  0.86885708  0.51416730     0.94000
Al436      Al  0.44760950  0.85414932  0.53730111     1.55600
O437        O  0.48054268  0.76316730  0.50088146    -0.77800
C438        C  0.41656817  0.81992713  0.55435691     0.98100
C439        C  0.46998447  0.84502624  0.59874131     0.93000
O440        O  0.47309151  0.80764207  0.59122863    -0.83100
O441        O  0.76913127  0.23579988  0.17061264    -0.82500
C442        C  0.80717868  0.30935252  0.27277498     0.96800
O443        O  0.80142935  0.27405838  0.26500338    -0.71700
O444        O  0.77918521  0.22213702  0.23931462    -0.75300
Al445      Al  0.79856142  0.25246596  0.22005832     1.49000
C446        C  0.76445456  0.23482482  0.24760948     0.92100
O447        O  0.75697823  0.34196688  0.20752393    -0.81500
O448        O  0.78426055  0.36742682  0.16763081    -0.75000
Al449      Al  0.76540349  0.28963550  0.19073288     1.90100
O450        O  0.77843542  0.36473949  0.23799283    -0.74100
O451        O  0.81354456  0.33260038  0.17910925    -0.74000
O452        O  0.80858004  0.33727954  0.24985812    -0.79600
O453        O  0.82068816  0.27455784  0.20477299    -0.77800
O454        O  0.78656797  0.29603266  0.20606046    -1.13900
O455        O  0.79654138  0.22564224  0.17678822    -0.73100
C456        C  0.78240255  0.21510582  0.16402620     0.97600
C457        C  0.76325800  0.36783418  0.22855803     0.94000
Al458      Al  0.79552668  0.34634271  0.20832483     1.55600
O459        O  0.75821543  0.26633799  0.23310212    -0.77800
C460        C  0.82469566  0.30651075  0.18704255     0.98100
C461        C  0.77567664  0.35076849  0.14360552     0.93000
O462        O  0.77042429  0.31370790  0.14670317    -0.83100
O463        O  0.96893269  0.49546445  0.17684377    -0.82500
C464        C  0.93121732  0.40145583  0.26770905     0.96800
O465        O  0.93624326  0.43852778  0.26431987    -0.71700
O466        O  0.95694034  0.49904161  0.24468684    -0.75300
Al467      Al  0.93912170  0.46670170  0.22166190     1.49000
C468        C  0.97179215  0.48824616  0.25372672     0.92100
O469        O  0.98364441  0.38695401  0.20706725    -0.81500
O470        O  0.95880595  0.36207735  0.16134465    -0.75000
Al471      Al  0.97402318  0.43991663  0.19346634     1.90100
O472        O  0.96183781  0.35695252  0.23237523    -0.74100
O473        O  0.92762499  0.39028305  0.17172697    -0.74000
O474        O  0.93068755  0.37749410  0.24181016    -0.79600
O475        O  0.91826751  0.44234061  0.20300403    -0.77800
O476        O  0.95276241  0.42763675  0.20530377    -1.13900
O477        O  0.94104357  0.49823088  0.18065625    -0.73100
C478        C  0.95492446  0.51244377  0.16899552     0.97600
C479        C  0.97739628  0.35817090  0.22555265     0.94000
Al480      Al  0.94532142  0.37590442  0.20186919     1.55600
O481        O  0.97920513  0.45889651  0.23844869    -0.77800
C482        C  0.91553377  0.41258952  0.18207872     0.98100
C483        C  0.96766714  0.38362969  0.14043492     0.93000
O484        O  0.97107812  0.42110193  0.14735606    -0.83100
O485        O  0.77329103  0.48608091  0.56245840    -0.82500
C486        C  0.80760786  0.39827771  0.46334931     0.96800
O487        O  0.80245438  0.43438214  0.46974720    -0.71700
O488        O  0.78190242  0.49091550  0.49411924    -0.75300
Al489      Al  0.80117226  0.45978283  0.51301103     1.49000
C490        C  0.76677439  0.47920625  0.48755557     0.92100
O491        O  0.75824492  0.37496845  0.53623309    -0.81500
O492        O  0.78574953  0.35277583  0.57572128    -0.75000
Al493      Al  0.76804890  0.42950922  0.54713629     1.90100
O494        O  0.77865476  0.34809422  0.50539894    -0.74100
O495        O  0.81616731  0.38216824  0.55730779    -0.74000
O496        O  0.80878893  0.37156688  0.48745166    -0.79600
O497        O  0.82312225  0.43730940  0.52699812    -0.77800
O498        O  0.78876038  0.41900186  0.53080429    -1.13900
O499        O  0.80093602  0.48903343  0.55474508    -0.73100
C500        C  0.78754638  0.50374757  0.56761053     0.97600
C501        C  0.76392053  0.34571108  0.51755783     0.94000
Al502      Al  0.79675587  0.36777801  0.53159303     1.55600
O503        O  0.76041743  0.44845002  0.50338664    -0.77800
C504        C  0.82728952  0.40733001  0.54658256     0.98100
C505        C  0.77766537  0.37372869  0.59835368     0.93000
O506        O  0.77374256  0.41105422  0.59217551    -0.83100
O507        O  0.97773401  0.24911763  0.54543393    -0.82500
C508        C  0.93569166  0.34257674  0.46463432     0.96800
O509        O  0.94182705  0.30640284  0.46533565    -0.71700
O510        O  0.96455658  0.24861595  0.47940405    -0.75300
Al511      Al  0.94627564  0.27494414  0.50541737     1.49000
C512        C  0.97894077  0.26227314  0.46960133     0.92100
O513        O  0.98831647  0.36352321  0.52179480    -0.81500
O514        O  0.96284490  0.37576704  0.57309422    -0.75000
Al515      Al  0.98075739  0.30696188  0.53204602     1.90100
O516        O  0.96497712  0.39256331  0.50350525    -0.74100
O517        O  0.93253405  0.34241196  0.56100930    -0.74000
O518        O  0.93499996  0.36443122  0.49185838    -0.79600
O519        O  0.92484711  0.29223438  0.52621584    -0.77800
O520        O  0.95885915  0.31550416  0.52341613    -1.13900
O521        O  0.94997756  0.23999385  0.54401340    -0.73100
C522        C  0.96456869  0.22797316  0.55327444     0.97600
C523        C  0.98064474  0.39442348  0.50886689     0.94000
Al524      Al  0.94957679  0.36459009  0.53191336     1.55600
O525        O  0.98558910  0.29290392  0.48497350    -0.77800
C526        C  0.92113647  0.31900313  0.54904638     0.98100
C527        C  0.97340623  0.35482048  0.59061952     0.93000
O528        O  0.97852204  0.32014642  0.57962981    -0.83100
O529        O  0.01833618  0.07903811  0.31823776    -0.82500
C530        C  0.06209710  0.09247605  0.20294135     0.96800
O531        O  0.06198679  0.11740480  0.22817015    -0.71700
O532        O  0.03051754  0.13811899  0.23317476    -0.75300
Al533      Al  0.04625500  0.12058478  0.26617397     1.49000
C534        C  0.01473792  0.13571937  0.23717682     0.92100
O535        O  0.01342621  0.03131334  0.22860201    -0.81500
O536        O  0.05020366  0.99761900  0.29182059    -0.75000
Al537      Al  0.01734995  0.05601338  0.27294031     1.90100
O538        O  0.03683727  0.99494746  0.22680678    -0.74100
O539        O  0.07333513  0.05414900  0.27069235    -0.74000
O540        O  0.05728044  0.05533160  0.20709163    -0.79600
O541        O  0.06336288  0.10812425  0.29871031    -0.77800
O542        O  0.03898495  0.06827129  0.26360606    -1.13900
O543        O  0.03166968  0.13663194  0.30461603    -0.73100
C544        C  0.02191274  0.11650951  0.32479441     0.97600
C545        C  0.02180532  0.00117264  0.21660349     0.94000
Al546      Al  0.05333109  0.02872960  0.25034685     1.55600
O547        O  0.00805223  0.10685789  0.25484503    -0.77800
C548        C  0.07560777  0.08475195  0.29085929     0.98100
C549        C  0.03581670  0.98496762  0.30238252     0.93000
O550        O  0.02229691  0.00331895  0.29349932    -0.83100
O551        O  0.22119419  0.18104942  0.34265459    -0.82500
C552        C  0.18768607  0.18366895  0.21235301     0.96800
O553        O  0.18598883  0.15533929  0.23493577    -0.71700
O554        O  0.21611104  0.13010028  0.25071505    -0.75300
Al555      Al  0.19794373  0.14686328  0.27820824     1.49000
C556        C  0.23096020  0.12746487  0.26219537     0.92100
O557        O  0.23491275  0.22991939  0.25765388    -0.81500
O558        O  0.19412169  0.26562804  0.30947461    -0.75000
Al559      Al  0.22688251  0.20600521  0.29925704     1.90100
O560        O  0.21376019  0.27282500  0.24931450    -0.74100
O561        O  0.17197365  0.21651553  0.27793509    -0.74000
O562        O  0.19323564  0.21889636  0.22082076    -0.79600
O563        O  0.17870429  0.15906485  0.30504225    -0.77800
O564        O  0.20625868  0.19770269  0.28150188    -1.13900
O565        O  0.20846294  0.12646737  0.32033932    -0.73100
C566        C  0.21668832  0.14330075  0.34488105     0.97600
C567        C  0.22873319  0.26075868  0.24211591     0.94000
Al568      Al  0.19420087  0.24022520  0.26591621     1.55600
O569        O  0.23653194  0.15415092  0.28339795    -0.77800
C570        C  0.16765104  0.18477872  0.29557112     0.98100
C571        C  0.20737155  0.27752591  0.32477246     0.93000
O572        O  0.22152139  0.25981882  0.31927422    -0.83100
O573        O  0.01476130  0.18196700  0.88920217    -0.82500
C574        C  0.05574163  0.15688866  0.00716438     0.96800
O575        O  0.05666321  0.13591864  0.97953807    -0.71700
O576        O  0.02650835  0.11019815  0.96603872    -0.75300
Al577      Al  0.04269705  0.13699111  0.93881987     1.49000
C578        C  0.01071106  0.11091491  0.96177847     0.92100
O579        O  0.00661532  0.21135939  0.98275616    -0.81500
O580        O  0.04393891  0.26153632  0.92818556    -0.75000
Al581      Al  0.01213664  0.19646441  0.93655033     1.90100
O582        O  0.02814998  0.25333630  0.99118769    -0.74100
O583        O  0.06788098  0.20779782  0.94715465    -0.74000
O584        O  0.04989758  0.19340671  0.00690089    -0.79600
O585        O  0.06044745  0.15865764  0.91101103    -0.77800
O586        O  0.03376321  0.18649096  0.94697875    -1.13900
O587        O  0.03003388  0.12606701  0.89700866    -0.73100
C588        C  0.01971655  0.14684483  0.87889303     0.97600
C589        C  0.01339497  0.24077708  0.99922327     0.94000
Al590      Al  0.04646265  0.22594583  0.96657837     1.55600
O591        O  0.00367782  0.14167829  0.94749468    -0.77800
C592        C  0.07174713  0.18172375  0.92393448     0.98100
C593        C  0.02976950  0.27356284  0.91663108     0.93000
O594        O  0.01624844  0.25317041  0.92281887    -0.83100
O595        O  0.22024395  0.08389879  0.89929196    -0.82500
C596        C  0.18163552  0.09689407  0.02146138     0.96800
O597        O  0.18164097  0.12413847  0.99770277    -0.71700
O598        O  0.21235356  0.14594849  0.98463333    -0.75300
Al599      Al  0.19504653  0.12764498  0.95564759     1.49000
C600        C  0.22772378  0.14589019  0.97628283     0.92100
O601        O  0.22889209  0.04057328  0.98908579    -0.81500
O602        O  0.19004316  0.00695842  0.92888043    -0.75000
Al603      Al  0.22346032  0.06315304  0.94454255     1.90100
O604        O  0.20586727  0.00201145  0.99264586    -0.74100
O605        O  0.16754491  0.06018362  0.95438177    -0.74000
O606        O  0.18565134  0.05990876  0.01495916    -0.79600
O607        O  0.17634957  0.11578642  0.92695893    -0.77800
O608        O  0.20223069  0.07549868  0.95701615    -1.13900
O609        O  0.20759651  0.14217126  0.91357519    -0.73100
C610        C  0.21623377  0.12087278  0.89216871     0.97600
C611        C  0.22090010  0.01028362  0.00244863     0.94000
Al612      Al  0.18834634  0.03545167  0.97136455     1.55600
O613        O  0.23366675  0.11589556  0.95885450    -0.77800
C614        C  0.16456152  0.09111222  0.93508371     0.98100
C615        C  0.20383589  0.99218579  0.91768783     0.93000
O616        O  0.21794611  0.00844427  0.92627555    -0.83100
O617        O  0.26731766  0.25878459  0.67240708    -0.82500
C618        C  0.30594904  0.33175272  0.77358722     0.96800
O619        O  0.29982409  0.29674834  0.76605961    -0.71700
O620        O  0.27672270  0.24658694  0.74089522    -0.75300
Al621      Al  0.29680217  0.27418501  0.72160496     1.49000
C622        C  0.26219834  0.26105552  0.74866732     0.92100
O623        O  0.25705777  0.36732162  0.70513284    -0.81500
O624        O  0.28524997  0.38806670  0.66521879    -0.75000
Al625      Al  0.26456110  0.31371630  0.69075915     1.90100
O626        O  0.27856668  0.39024124  0.73529520    -0.74100
O627        O  0.31394716  0.35112901  0.67982017    -0.74000
O628        O  0.30789565  0.35920069  0.75033713    -0.79600
O629        O  0.31939687  0.29263957  0.70643770    -0.77800
O630        O  0.28577252  0.31862704  0.70634374    -1.13900
O631        O  0.29456730  0.24680056  0.67882646    -0.73100
C632        C  0.28035302  0.23724294  0.66598031     0.97600
C633        C  0.26361684  0.39429469  0.72465642     0.94000
Al634      Al  0.29569251  0.36801143  0.70744306     1.55600
O635        O  0.25672668  0.29320484  0.73382563    -0.77800
C636        C  0.32426019  0.32308654  0.68786595     0.98100
C637        C  0.27605465  0.37152846  0.64200541     0.93000
O638        O  0.27018592  0.33516684  0.64618919    -0.83100
O639        O  0.47229716  0.48524902  0.68168614    -0.82500
C640        C  0.43204998  0.39478586  0.76997128     0.96800
O641        O  0.43691970  0.43206654  0.76654710    -0.71700
O642        O  0.45767353  0.49273433  0.74754348    -0.75300
Al643      Al  0.44097291  0.45980352  0.72369406     1.49000
C644        C  0.47253397  0.48524804  0.75807282     0.92100
O645        O  0.48553745  0.37949400  0.71854507    -0.81500
O646        O  0.46134861  0.35405206  0.66576745    -0.75000
Al647      Al  0.47678141  0.43153272  0.70127811     1.90100
O648        O  0.46259367  0.34727509  0.73644136    -0.74100
O649        O  0.43006639  0.38364776  0.67312772    -0.74000
O650        O  0.43172211  0.37082247  0.74396882    -0.79600
O651        O  0.42069020  0.43635503  0.70330419    -0.77800
O652        O  0.45498803  0.41995752  0.70961304    -1.13900
O653        O  0.44436726  0.49103642  0.68252842    -0.73100
C654        C  0.45883130  0.50361532  0.67232827     0.97600
C655        C  0.47844461  0.34918546  0.73382716     0.94000
Al656      Al  0.44710369  0.36841090  0.70498024     1.55600
O657        O  0.48049860  0.45435156  0.74629061    -0.77800
C658        C  0.41811013  0.40731988  0.68183866     0.98100
C659        C  0.47170137  0.37423460  0.64690635     0.93000
O660        O  0.47611633  0.41053993  0.65536369    -0.83100
O661        O  0.27412596  0.51002859  0.06002876    -0.82500
C662        C  0.30974601  0.42087939  0.96490458     0.96800
O663        O  0.30616292  0.45803267  0.97193795    -0.71700
O664        O  0.28678185  0.51750258  0.99505135    -0.75300
Al665      Al  0.30371403  0.48180003  0.01590714     1.49000
C666        C  0.27176692  0.51045010  0.98456057     0.92100
O667        O  0.25734170  0.40431149  0.02566777    -0.81500
O668        O  0.28256156  0.37575130  0.07229019    -0.75000
Al669      Al  0.26805557  0.45616072  0.04087380     1.90100
O670        O  0.27861347  0.37334250  0.00064009    -0.74100
O671        O  0.31436167  0.40028782  0.05995388    -0.74000
O672        O  0.30955758  0.39329739  0.98850078    -0.79600
O673        O  0.32417342  0.45492001  0.03263232    -0.77800
O674        O  0.28923876  0.44252999  0.02933855    -1.13900
O675        O  0.30209268  0.50926875  0.05890546    -0.73100
C676        C  0.28834428  0.52493995  0.06958180     0.97600
C677        C  0.26319338  0.37406830  0.00842060     0.94000
Al678      Al  0.29578619  0.38998755  0.03047869     1.55600
O679        O  0.26353475  0.47961519  0.99632943    -0.77800
C680        C  0.32661688  0.42353914  0.05175520     0.98100
C681        C  0.27370743  0.39746277  0.09315394     0.93000
O682        O  0.27037176  0.43478680  0.08598166    -0.83100
O683        O  0.46903930  0.23385431  0.06082378    -0.82500
C684        C  0.43428809  0.33285828  0.96882832     0.96800
O685        O  0.43860249  0.29518806  0.97149116    -0.71700
O686        O  0.45713094  0.23092068  0.99173913    -0.75300
Al687      Al  0.44039133  0.26548993  0.01403897     1.49000
C688        C  0.47263278  0.23594848  0.98398068     0.92100
O689        O  0.48680645  0.33891804  0.02819260    -0.81500
O690        O  0.46133038  0.36653656  0.07793643    -0.75000
Al691      Al  0.47595461  0.28754609  0.04300375     1.90100
O692        O  0.46527166  0.37393819  0.00773788    -0.74100
O693        O  0.42944315  0.34080645  0.06539499    -0.74000
O694        O  0.43414666  0.35601528  0.99534820    -0.79600
O695        O  0.41996655  0.29094627  0.03201836    -0.77800
O696        O  0.45485741  0.30253743  0.03151956    -1.13900
O697        O  0.44116502  0.23289639  0.05461531    -0.73100
C698        C  0.45458898  0.21773228  0.06726096     0.97600
C699        C  0.48091265  0.37059255  0.01296013     0.94000
Al700      Al  0.44812472  0.35476534  0.03644923     1.55600
O701        O  0.48100148  0.26487469  0.99812352    -0.77800
C702        C  0.41724617  0.31921388  0.05411223     0.98100
C703        C  0.47074877  0.34508891  0.09756919     0.93000
O704        O  0.47422308  0.30807799  0.08932973    -0.83100
C705        C  0.39950151  0.33041484  0.06291501    -0.06000
C706        C  0.38638106  0.30101955  0.05927087    -0.05900
C707        C  0.36935088  0.31325744  0.06040850    -0.24100
C708        C  0.36513627  0.35535124  0.06407463     0.18100
C709        C  0.37818594  0.38515271  0.06851452     0.15400
C710        C  0.39527082  0.37232541  0.06884289    -0.19100
C711        C  0.37396803  0.42750210  0.07025946    -0.20900
C712        C  0.35708823  0.44030778  0.06594958    -0.13500
C713        C  0.34407873  0.41089377  0.06121474     0.03200
C714        C  0.34817333  0.36834655  0.06132344    -0.25600
H715        H  0.38932672  0.26872242  0.05431731     0.08300
H716        H  0.35949953  0.29004485  0.05673763     0.11900
H717        H  0.40529040  0.39543893  0.07085213     0.11800
H718        H  0.38381339  0.45082929  0.07344992     0.11500
H719        H  0.35422213  0.47318491  0.06570647     0.12100
H720        H  0.33827169  0.34542236  0.05686760     0.14000
C721        C  0.42783105  0.37788921  0.80480616    -0.06000
C722        C  0.42591786  0.33472594  0.80942382    -0.05900
C723        C  0.42530834  0.31735743  0.84260880    -0.24100
C724        C  0.42658580  0.34278442  0.87192413     0.18100
C725        C  0.42734125  0.38640167  0.86770047     0.15400
C726        C  0.42790615  0.40370243  0.83421120    -0.19100
C727        C  0.42841052  0.41185040  0.89704370    -0.20900
C728        C  0.42974191  0.39425437  0.93004834    -0.13500
C729        C  0.43009129  0.35084386  0.93444038     0.03200
C730        C  0.42795640  0.32526979  0.90522112    -0.25600
H731        H  0.42577694  0.31401829  0.78734248     0.08300
H732        H  0.42453328  0.28390757  0.84529736     0.11900
H733        H  0.42929131  0.43701205  0.83112645     0.11800
H734        H  0.42884139  0.44533753  0.89439315     0.11500
H735        H  0.43128791  0.41476823  0.95203665     0.12100
H736        H  0.42804236  0.29179346  0.90820096     0.14000
C737        C  0.31013222  0.34090287  0.81022203    -0.06000
C738        C  0.30998099  0.30878949  0.83500676    -0.05900
C739        C  0.31149734  0.31762760  0.87029481    -0.24100
C740        C  0.31301081  0.35882712  0.88158486     0.18100
C741        C  0.31382419  0.39122517  0.85682735     0.15400
C742        C  0.31256332  0.38205704  0.82134501    -0.19100
C743        C  0.31509898  0.43245685  0.86803195    -0.20900
C744        C  0.31473995  0.44169047  0.90332778    -0.13500
C745        C  0.31322752  0.40990653  0.92826447     0.03200
C746        C  0.31289365  0.36831405  0.91715874    -0.25600
H747        H  0.30819125  0.27676918  0.82718304     0.08300
H748        H  0.31090583  0.29233718  0.88880468     0.11900
H749        H  0.31258592  0.40714900  0.80259269     0.11800
H750        H  0.31577001  0.45770147  0.84948435     0.11500
H751        H  0.31504125  0.47402302  0.91105043     0.12100
H752        H  0.31157719  0.34352114  0.93601270     0.14000
C753        C  0.34239090  0.32931462  0.67829725    -0.06000
C754        C  0.35427123  0.29694663  0.67980919    -0.05900
C755        C  0.37168292  0.30529572  0.67544975    -0.24100
C756        C  0.37750259  0.34633638  0.67078178     0.18100
C757        C  0.36558835  0.37885987  0.66839868     0.15400
C758        C  0.34818916  0.36998614  0.67124689    -0.19100
C759        C  0.37126945  0.42014584  0.66563448    -0.20900
C760        C  0.38859862  0.42945258  0.66769316    -0.13500
C761        C  0.40055236  0.39755843  0.67110791     0.03200
C762        C  0.39497766  0.35585659  0.67105118    -0.25600
H763        H  0.35013684  0.26545046  0.68519134     0.08300
H764        H  0.38064620  0.27995146  0.67742299     0.11900
H765        H  0.33922721  0.39546522  0.67046149     0.11800
H766        H  0.36225733  0.44542276  0.66393537     0.11500
H767        H  0.39263852  0.46167205  0.66804065     0.12100
H768        H  0.40412386  0.33110289  0.67451148     0.14000
C769        C  0.23770936  0.18403696  0.98331435    -0.06000
C770        C  0.25407559  0.18946598  0.96944866    -0.05900
C771        C  0.26195789  0.22850635  0.97035295    -0.24100
C772        C  0.25351380  0.26276458  0.98481806     0.18100
C773        C  0.23723750  0.25750576  0.99954501     0.15400
C774        C  0.22955814  0.21818350  0.99908894    -0.19100
C775        C  0.22881955  0.29177587  0.01408035    -0.20900
C776        C  0.23672697  0.33080757  0.01503328    -0.13500
C777        C  0.25307799  0.33621374  0.00109645     0.03200
C778        C  0.26118783  0.30206788  0.98523304    -0.25600
H779        H  0.26050561  0.16397219  0.95675952     0.08300
H780        H  0.27451703  0.23210944  0.95909042     0.11900
H781        H  0.21686099  0.21470090  0.00975799     0.11800
H782        H  0.21627375  0.28817209  0.02540145     0.11500
H783        H  0.23034592  0.35627559  0.02786003     0.12100
H784        H  0.27388040  0.30550359  0.97452707     0.14000
C785        C  0.22324797  0.14003077  0.86000912    -0.06000
C786        C  0.23365978  0.11624715  0.83796510    -0.05900
C787        C  0.24297402  0.13493014  0.81126314    -0.24100
C788        C  0.24205357  0.17786025  0.80579896     0.18100
C789        C  0.23090493  0.20188527  0.82637735     0.15400
C790        C  0.22156166  0.18286029  0.85334462    -0.19100
C791        C  0.22971973  0.24473927  0.82026758    -0.20900
C792        C  0.23973655  0.26365583  0.79464881    -0.13500
C793        C  0.25135192  0.24028649  0.77501375     0.03200
C794        C  0.25233351  0.19722777  0.78055447    -0.25600
H795        H  0.23519689  0.08321873  0.84222745     0.08300
H796        H  0.25126776  0.11590202  0.79548076     0.11900
H797        H  0.21359920  0.20168026  0.87000227     0.11800
H798        H  0.22118719  0.26371616  0.83554805     0.11500
H799        H  0.23868106  0.29686868  0.79069988     0.12100
H800        H  0.26104066  0.17882495  0.76515473     0.14000
C801        C  0.08984609  0.17338666  0.91641706    -0.06000
C802        C  0.10214171  0.20485790  0.91969227    -0.05900
C803        C  0.11946525  0.19505648  0.91999011    -0.24100
C804        C  0.12472373  0.15343745  0.91845514     0.18100
C805        C  0.11245313  0.12159543  0.91473789     0.15400
C806        C  0.09515282  0.13189958  0.91270438    -0.19100
C807        C  0.11759311  0.07985720  0.91536001    -0.20900
C808        C  0.13465175  0.06969220  0.92099134    -0.13500
C809        C  0.14693652  0.10107974  0.92479220     0.03200
C810        C  0.14192017  0.14297530  0.92258760    -0.25600
H811        H  0.09830868  0.23686594  0.92317292     0.08300
H812        H  0.12869842  0.21983490  0.92315508     0.11900
H813        H  0.08573569  0.10725557  0.91123190     0.11800
H814        H  0.10831856  0.05505319  0.91288358     0.11500
H815        H  0.13822429  0.03731287  0.92289232     0.12100
H816        H  0.15125163  0.16745080  0.92634069     0.14000
C817        C  0.23925849  0.28192393  0.21513279    -0.06000
C818        C  0.25260081  0.26009711  0.19902704    -0.05900
C819        C  0.26242302  0.27846352  0.17282751    -0.24100
C820        C  0.25934373  0.31943383  0.16237024     0.18100
C821        C  0.24631041  0.34217914  0.17903067     0.15400
C822        C  0.23621540  0.32319806  0.20496103    -0.19100
C823        C  0.24349571  0.38344403  0.16921519    -0.20900
C824        C  0.25307689  0.40158866  0.14260089    -0.13500
C825        C  0.26563341  0.37889560  0.12468919     0.03200
C826        C  0.26884412  0.33775889  0.13517269    -0.25600
H827        H  0.25525830  0.22826239  0.20624646     0.08300
H828        H  0.27238148  0.26046588  0.16060098     0.11900
H829        H  0.22609883  0.34056044  0.21731820     0.11800
H830        H  0.23367871  0.40158540  0.18177048     0.11500
H831        H  0.25017030  0.43323351  0.13523664     0.12100
H832        H  0.27842373  0.31975260  0.12173586     0.14000
C833        C  0.17793430  0.10837618  0.05769969    -0.06000
C834        C  0.17461707  0.07712502  0.08233441    -0.05900
C835        C  0.17432492  0.08634534  0.11762122    -0.24100
C836        C  0.17760599  0.12689071  0.12894772     0.18100
C837        C  0.18018338  0.15891731  0.10432590     0.15400
C838        C  0.18008726  0.14957636  0.06883333    -0.19100
C839        C  0.18372119  0.19932987  0.11565314    -0.20900
C840        C  0.18549296  0.20755076  0.15092660    -0.13500
C841        C  0.18363840  0.17559196  0.17558937     0.03200
C842        C  0.17918309  0.13549805  0.16441357    -0.25600
H843        H  0.17287415  0.04513607  0.07436888     0.08300
H844        H  0.17224089  0.06144109  0.13607841     0.11900
H845        H  0.18283621  0.17383195  0.05009697     0.11800
H846        H  0.18569250  0.22429268  0.09719829     0.11500
H847        H  0.18882400  0.23881877  0.15880679     0.12100
H848        H  0.17771129  0.11059713  0.18312836     0.14000
C849        C  0.06076837  0.13740235  0.04010735    -0.06000
C850        C  0.05925433  0.09412336  0.04404659    -0.05900
C851        C  0.06116887  0.07569653  0.07651413    -0.24100
C852        C  0.06472610  0.10026596  0.10553129     0.18100
C853        C  0.06746204  0.14346087  0.10136675     0.15400
C854        C  0.06544687  0.16179773  0.06865624    -0.19100
C855        C  0.07117134  0.16792438  0.13035066    -0.20900
C856        C  0.07073880  0.15044953  0.16344330    -0.13500
C857        C  0.06666315  0.10818134  0.16810200     0.03200
C858        C  0.06449838  0.08282726  0.13884063    -0.25600
H859        H  0.05564937  0.07472026  0.02234641     0.08300
H860        H  0.05915085  0.04253319  0.07916201     0.11900
H861        H  0.06680150  0.19514428  0.06570245     0.11800
H862        H  0.07355584  0.20093687  0.12760818     0.11500
H863        H  0.07265299  0.17063426  0.18552032     0.12100
H864        H  0.06145591  0.05016587  0.14202817     0.14000
C865        C  0.09308537  0.09663911  0.30100790    -0.06000
C866        C  0.10585976  0.06651202  0.30342798    -0.05900
C867        C  0.12291648  0.07833996  0.30656480    -0.24100
C868        C  0.12754049  0.12053272  0.30608781     0.18100
C869        C  0.11481022  0.15118979  0.30399796     0.15400
C870        C  0.09762940  0.13904567  0.30234216    -0.19100
C871        C  0.11955556  0.19328498  0.30162889    -0.20900
C872        C  0.13676576  0.20475343  0.30000113    -0.13500
C873        C  0.14950185  0.17443950  0.30184492     0.03200
C874        C  0.14472386  0.13241205  0.30579605    -0.25600
H875        H  0.10267165  0.03379018  0.30191212     0.08300
H876        H  0.13255400  0.05444825  0.30784835     0.11900
H877        H  0.08790694  0.16255963  0.29947075     0.11800
H878        H  0.10995666  0.21720364  0.29973182     0.11500
H879        H  0.14012014  0.23719014  0.29669031     0.12100
H880        H  0.15439938  0.10854184  0.30649864     0.14000
C881        C  0.98830205  0.24128322  0.44093123    -0.06000
C882        C  0.00064801  0.26291733  0.42149223    -0.05900
C883        C  0.00979571  0.24298846  0.39509824    -0.24100
C884        C  0.00707224  0.20068107  0.38801152     0.18100
C885        C  0.99484404  0.17848199  0.40764334     0.15400
C886        C  0.98540835  0.19896895  0.43358452    -0.19100
C887        C  0.99230327  0.13606679  0.40109541    -0.20900
C888        C  0.00156975  0.11590349  0.37512449    -0.13500
C889        C  0.01357235  0.13761159  0.35481025     0.03200
C890        C  0.01628857  0.18022874  0.36162893    -0.25600
H891        H  0.00315091  0.29545121  0.42657297     0.08300
H892        H  0.01910881  0.26064279  0.38038776     0.11900
H893        H  0.97607579  0.18171633  0.44860293     0.11800
H894        H  0.98303201  0.11844450  0.41594777    -0.04500
H895        H  0.99903839  0.08329563  0.37046607     0.12100
H896        H  0.02536730  0.19764043  0.34611671     0.14000
C897        C  0.90311598  0.32784676  0.55735762    -0.06000
C898        C  0.89085954  0.29607727  0.55813110    -0.05900
C899        C  0.87352093  0.30569828  0.56011811    -0.24100
C900        C  0.86813590  0.34729936  0.55980741     0.18100
C901        C  0.88036907  0.37951829  0.55915904     0.15400
C902        C  0.89775954  0.36956795  0.55891728    -0.19100
C903        C  0.87499825  0.42102849  0.55675465    -0.20900
C904        C  0.85768813  0.43045217  0.55364479    -0.13500
C905        C  0.84541751  0.39867024  0.55414312     0.03200
C906        C  0.85075862  0.35715812  0.55818392    -0.25600
H907        H  0.89469577  0.26386963  0.55642349     0.08300
H908        H  0.86429537  0.28059952  0.56032034     0.11900
H909        H  0.90710990  0.39436381  0.55729338     0.11800
H910        H  0.88422696  0.44610491  0.55593497     0.11500
H911        H  0.85389523  0.46251521  0.55033586     0.12100
H912        H  0.84143483  0.33224650  0.55785057     0.14000
C913        C  0.92697945  0.38492855  0.30235357    -0.06000
C914        C  0.92537507  0.34178713  0.30725109    -0.05900
C915        C  0.92485902  0.32497229  0.34052182    -0.24100
C916        C  0.92595872  0.35102552  0.36942867     0.18100
C917        C  0.92632403  0.39460979  0.36485899     0.15400
C918        C  0.92671919  0.41132228  0.33131509    -0.19100
C919        C  0.92736030  0.42059594  0.39388182    -0.20900
C920        C  0.92925719  0.40351043  0.42690097    -0.13500
C921        C  0.93012992  0.36022353  0.43132799     0.03200
C922        C  0.92776072  0.33413808  0.40262625    -0.25600
H923        H  0.92547502  0.32076496  0.28537916     0.08300
H924        H  0.92441273  0.29151647  0.34359960     0.11900
H925        H  0.92782754  0.44465649  0.32784255     0.11800
H926        H  0.92750933  0.45407254  0.39089741     0.11500
H927        H  0.93102901  0.42422975  0.44868328     0.12100
H928        H  0.92825036  0.30069190  0.40584738     0.14000
C929        C  0.98713808  0.32158106  0.23467885    -0.06000
C930        C  0.98570132  0.30535871  0.26825709    -0.05900
C931        C  0.98977555  0.26402681  0.27474334    -0.24100
C932        C  0.99491713  0.23830534  0.24746716     0.18100
C933        C  0.99679791  0.25478687  0.21367770     0.15400
C934        C  0.99310186  0.29660284  0.20761633    -0.19100
C935        C  0.00214042  0.22900726  0.18652946    -0.20900
C936        C  0.00654853  0.18784147  0.19330105    -0.13500
C937        C  0.00493432  0.17174572  0.22689108     0.03200
C938        C  0.99859296  0.19659532  0.25360843    -0.25600
H939        H  0.98051871  0.32412059  0.28900646     0.08300
H940        H  0.98837115  0.25184918  0.30076513     0.11900
H941        H  0.99355520  0.30883365  0.18144018     0.11800
H942        H  0.00359446  0.24113335  0.16050436     0.11500
H943        H  0.01202704  0.16916859  0.17282268     0.12100
H944        H  0.99800723  0.18445873  0.27981542     0.14000
C945        C  0.00372569  0.26138368  0.02722942    -0.06000
C946        C  0.99274347  0.23810532  0.04853954    -0.05900
C947        C  0.98316036  0.25748139  0.07442626    -0.24100
C948        C  0.98406396  0.30069001  0.07890465     0.18100
C949        C  0.99486500  0.32449852  0.05720231     0.15400
C950        C  0.00481111  0.30463891  0.03184355    -0.19100
C951        C  0.99553852  0.36775464  0.06128127    -0.20900
C952        C  0.98599743  0.38715002  0.08720968    -0.13500
C953        C  0.97558285  0.36373505  0.10967759     0.03200
C954        C  0.97452025  0.32039817  0.10496204    -0.25600
H955        H  0.99170406  0.20476248  0.04533724     0.08300
H956        H  0.97496793  0.23868741  0.09081401     0.11900
H957        H  0.01308251  0.32288441  0.01515823     0.11800
H958        H  0.00365499  0.38656422  0.04474990     0.11500
H959        H  0.98717256  0.42047167  0.09030453     0.12100
H960        H  0.96668991  0.30179009  0.12222645     0.14000
C961        C  0.81167977  0.38775549  0.42697637    -0.06000
C962        C  0.81259151  0.41974296  0.40211715    -0.05900
C963        C  0.81369416  0.41062046  0.36692632    -0.24100
C964        C  0.81374108  0.36928795  0.35580035     0.18100
C965        C  0.81368917  0.33680767  0.38053086     0.15400
C966        C  0.81288579  0.34624568  0.41605369    -0.19100
C967        C  0.81346570  0.29546240  0.36920145    -0.20900
C968        C  0.81221211  0.28645350  0.33389311    -0.13500
C969        C  0.81145399  0.31860761  0.30924651     0.03200
C970        C  0.81287747  0.35999419  0.32037602    -0.25600
H971        H  0.81185876  0.45204345  0.40979182     0.08300
H972        H  0.81381407  0.43590453  0.34836946     0.11900
H973        H  0.81215703  0.32134189  0.43493092     0.11800
H974        H  0.81352654  0.27011978  0.38769262     0.11500
H975        H  0.81125301  0.25427309  0.32595180     0.12100
H976        H  0.81222440  0.38508924  0.30167453     0.14000
C977        C  0.84264570  0.31726457  0.17900459    -0.06000
C978        C  0.85576374  0.28804678  0.18159883    -0.05900
C979        C  0.87280343  0.30070582  0.17865650    -0.24100
C980        C  0.87697395  0.34296792  0.17428935     0.18100
C981        C  0.86386258  0.37248308  0.17139892     0.15400
C982        C  0.84687602  0.35932058  0.17285592    -0.19100
C983        C  0.86791828  0.41498275  0.16909167    -0.20900
C984        C  0.88483331  0.42834754  0.17121459    -0.13500
C985        C  0.89796920  0.39934099  0.17417893     0.03200
C986        C  0.89397148  0.35655008  0.17471254    -0.25600
H987        H  0.85285789  0.25567334  0.18662804     0.08300
H988        H  0.88273154  0.27769485  0.18120105     0.11900
H989        H  0.83693985  0.38249189  0.17146909     0.11800
H990        H  0.85795431  0.43799576  0.16717093     0.11500
H991        H  0.88764831  0.46132003  0.17123240     0.12100
H992        H  0.90403054  0.33396892  0.17798233     0.14000
C993        C  0.46029441  0.54150808  0.65084101    -0.06000
C994        C  0.47616729  0.55352938  0.63714001    -0.05900
C995        C  0.47798768  0.59085797  0.61906396    -0.24100
C996        C  0.46397488  0.61693071  0.61441671     0.18100
C997        C  0.44791518  0.60500765  0.62776269     0.15400
C998        C  0.44616522  0.56736369  0.64579915    -0.19100
C999        C  0.43388144  0.63100743  0.62291355    -0.20900
C1000       C  0.43567983  0.66815534  0.60453081    -0.13500
C1001       C  0.45157572  0.68017409  0.59103104     0.03200
C1002       C  0.46573237  0.65455275  0.59640292    -0.25600
H1003       H  0.48727273  0.53423846  0.64070640     0.08300
H1004       H  0.49037157  0.59943476  0.60890907     0.11900
H1005       H  0.43388853  0.55863109  0.65643131     0.11800
H1006       H  0.42149118  0.62242915  0.63302688     0.11500
H1007       H  0.42458511  0.68741349  0.60069085     0.12100
H1008       H  0.47801324  0.66330811  0.58579143     0.14000
C1009       C  0.27872196  0.19893700  0.64543092    -0.06000
C1010       C  0.26273723  0.18538889  0.63362835    -0.05900
C1011       C  0.26103323  0.14716353  0.61688742    -0.24100
C1012       C  0.27528285  0.12190300  0.61178471     0.18100
C1013       C  0.29138800  0.13547554  0.62351706     0.15400
C1014       C  0.29300797  0.17383963  0.64004465    -0.19100
C1015       C  0.30566943  0.11047213  0.61859637    -0.20900
C1016       C  0.30412935  0.07274804  0.60136290    -0.13500
C1017       C  0.28827489  0.05929375  0.58878135     0.03200
C1018       C  0.27379432  0.08367691  0.59466165    -0.25600
H1019       H  0.25149127  0.20402469  0.63782483     0.08300
H1020       H  0.24858668  0.13729055  0.60810848     0.11900
H1021       H  0.30538653  0.18378356  0.64922562     0.11800
H1022       H  0.31807874  0.12037594  0.62758635     0.11500
H1023       H  0.31548975  0.05451583  0.59716543     0.12100
H1024       H  0.26153924  0.07371697  0.58485344     0.14000
C1025       C  0.26180895  0.04079074  0.45836677    -0.06000
C1026       C  0.26877258  0.08066431  0.45309646    -0.05900
C1027       C  0.26059417  0.10978584  0.43202791    -0.24100
C1028       C  0.24531912  0.09963291  0.41532535     0.18100
C1029       C  0.23809323  0.05979155  0.42042902     0.15400
C1030       C  0.24627232  0.03078511  0.44214112    -0.19100
C1031       C  0.22300915  0.04937616  0.40307900    -0.20900
C1032       C  0.21554363  0.07744688  0.37994021    -0.13500
C1033       C  0.22276218  0.11693689  0.37409734     0.03200
C1034       C  0.23749018  0.12812508  0.39268047    -0.25600
H1035       H  0.28056246  0.08955795  0.46552534     0.08300
H1036       H  0.26634569  0.14013291  0.42846873     0.11900
H1037       H  0.24068527  0.00028330  0.44594842     0.11800
H1038       H  0.21726023  0.01901819  0.40657688     0.11500
H1039       H  0.20433374  0.06776605  0.36581067     0.12100
H1040       H  0.24342721  0.15807002  0.38803375     0.14000
C1041       C  0.34353795  0.91256251  0.55822065    -0.06000
C1042       C  0.35665794  0.94223264  0.55954137    -0.05900
C1043       C  0.37358582  0.92982905  0.56365768    -0.24100
C1044       C  0.37773303  0.88744937  0.56526357     0.18100
C1045       C  0.36459492  0.85739760  0.56457083     0.15400
C1046       C  0.34759090  0.87019796  0.56200798    -0.19100
C1047       C  0.36874060  0.81500342  0.56418135    -0.20900
C1048       C  0.38574600  0.80251121  0.56256803    -0.13500
C1049       C  0.39890531  0.83209875  0.56273726     0.03200
C1050       C  0.39479839  0.87455339  0.56529147    -0.25600
H1051       H  0.35385230  0.97493849  0.55649029     0.08300
H1052       H  0.38350602  0.95331311  0.56395987     0.11900
H1053       H  0.33761184  0.84691887  0.56033004     0.11800
H1054       H  0.35881647  0.79154339  0.56340403     0.11500
H1055       H  0.38862982  0.76976365  0.56021884     0.12100
H1056       H  0.40486887  0.89768202  0.56451348     0.14000
C1057       C  0.45339906  0.17946017  0.08831037    -0.06000
C1058       C  0.43755150  0.16579915  0.10094573    -0.05900
C1059       C  0.43609132  0.12816537  0.11871696    -0.24100
C1060       C  0.45042537  0.10327081  0.12386448     0.18100
C1061       C  0.46645133  0.11675422  0.11143696     0.15400
C1062       C  0.46786708  0.15490702  0.09399945    -0.19100
C1063       C  0.48074783  0.09163289  0.11637054    -0.20900
C1064       C  0.47920599  0.05365964  0.13369485    -0.13500
C1065       C  0.46334527  0.04012524  0.14646857     0.03200
C1066       C  0.44897635  0.06514532  0.14125905    -0.25600
H1067       H  0.42621605  0.18412063  0.09686193     0.08300
H1068       H  0.42371542  0.11833347  0.12811451     0.11900
H1069       H  0.48013196  0.16490379  0.08408027     0.11800
H1070       H  0.49313019  0.10141975  0.10697450     0.11500
H1071       H  0.49051308  0.03517060  0.13754551     0.12100
H1072       H  0.43668039  0.05523496  0.15107118     0.14000
C1073       C  0.43365679  0.87917794  0.30477277    -0.06000
C1074       C  0.43195405  0.83592957  0.30914651    -0.05900
C1075       C  0.43100005  0.81834309  0.34215155    -0.24100
C1076       C  0.43158254  0.84361923  0.37159641     0.18100
C1077       C  0.43261290  0.88726414  0.36765187     0.15400
C1078       C  0.43373173  0.90480483  0.33426768    -0.19100
C1079       C  0.43300222  0.91245875  0.39722854    -0.20900
C1080       C  0.43295514  0.89457036  0.43027781    -0.13500
C1081       C  0.43261744  0.85111161  0.43447713     0.03200
C1082       C  0.43165213  0.82584892  0.40487548    -0.25600
H1083       H  0.43200656  0.81534776  0.28698119     0.08300
H1084       H  0.43017266  0.78486376  0.34463673     0.11900
H1085       H  0.43505452  0.93815155  0.33129982     0.11800
H1086       H  0.43372719  0.94595070  0.39481635     0.11500
H1087       H  0.43383174  0.91482911  0.45258122     0.12100
H1088       H  0.43139512  0.79233896  0.40767455     0.14000
C1089       C  0.28900596  0.56279188  0.09118190    -0.06000
C1090       C  0.30447754  0.57547123  0.10599963    -0.05900
C1091       C  0.30578150  0.61349726  0.12307321    -0.24100
C1092       C  0.29167422  0.63975591  0.12536884     0.18100
C1093       C  0.27593242  0.62704275  0.11130230     0.15400
C1094       C  0.27465299  0.58844750  0.09453399    -0.19100
C1095       C  0.26185045  0.65351136  0.11374455    -0.20900
C1096       C  0.26336565  0.69219672  0.12998565    -0.13500
C1097       C  0.27900651  0.70514141  0.14389385     0.03200
C1098       C  0.29311441  0.67860155  0.14139705    -0.25600
H1099       H  0.31570292  0.55627193  0.10383284     0.08300
H1100       H  0.31791386  0.62269947  0.13392722     0.11900
H1101       H  0.26267709  0.57914061  0.08302043     0.11800
H1102       H  0.24966706  0.64426965  0.10316858     0.11500
H1103       H  0.25225553  0.71180943  0.13195026     0.12100
H1104       H  0.30521599  0.68783868  0.15240754     0.14000
C1105       C  0.24048864  0.08945075  0.25466056    -0.06000
C1106       C  0.25734575  0.08451274  0.26557113    -0.05900
C1107       C  0.26506505  0.04558289  0.26359612    -0.24100
C1108       C  0.25587039  0.01115733  0.25132520     0.18100
C1109       C  0.23894822  0.01609437  0.24014386     0.15400
C1110       C  0.23151554  0.05518359  0.24131854    -0.19100
C1111       C  0.22962644  0.98180908  0.22822748    -0.20900
C1112       C  0.23728310  0.94301149  0.22592839    -0.13500
C1113       C  0.25430274  0.93805235  0.23574444     0.03200
C1114       C  0.26337952  0.97202777  0.24942789    -0.25600
H1115       H  0.26436692  0.11040695  0.27640959     0.08300
H1116       H  0.27808149  0.04222473  0.27222453     0.11900
H1117       H  0.21838328  0.05834661  0.23329528     0.11800
H1118       H  0.21656269  0.98522080  0.21989364     0.11500
H1119       H  0.23011134  0.91731824  0.21515870     0.12100
H1120       H  0.27657297  0.96862278  0.25693301     0.14000
C1121       C  0.22898546  0.98325211  0.02915949    -0.06000
C1122       C  0.21899750  0.95340257  0.04657977    -0.05900
C1123       C  0.22615765  0.92653677  0.07086227    -0.24100
C1124       C  0.24353069  0.92876352  0.07849933     0.18100
C1125       C  0.25380388  0.95891125  0.06180611     0.15400
C1126       C  0.24648628  0.98595525  0.03710946    -0.19100
C1127       C  0.27113987  0.96157207  0.07048191    -0.20900
C1128       C  0.27807378  0.93522608  0.09579930    -0.13500
C1129       C  0.26795134  0.90484075  0.11211859     0.03200
C1130       C  0.25068995  0.90167857  0.10301837    -0.25600
H1131       H  0.20551907  0.95063682  0.04137258     0.08300
H1132       H  0.21805946  0.90393297  0.08370939     0.11900
H1133       H  0.25438725  0.00879414  0.02404229     0.11800
H1134       H  0.27926241  0.98453175  0.05816830     0.11500
H1135       H  0.29133166  0.93867604  0.10276128     0.12100
H1136       H  0.24263180  0.87917030  0.11613675     0.14000
C1137       C  0.31214442  0.84642258  0.30626567    -0.06000
C1138       C  0.31195091  0.81375870  0.33055651    -0.05900
C1139       C  0.31367302  0.82182063  0.36587018    -0.24100
C1140       C  0.31542141  0.86275083  0.37758263     0.18100
C1141       C  0.31661603  0.89555515  0.35324804     0.15400
C1142       C  0.31520688  0.88713089  0.31773082    -0.19100
C1143       C  0.31812240  0.93654226  0.36492383    -0.20900
C1144       C  0.31722316  0.94523105  0.40024207    -0.13500
C1145       C  0.31502394  0.91306225  0.42456397     0.03200
C1146       C  0.31488859  0.87165953  0.41314082    -0.25600
H1147       H  0.30978152  0.78200192  0.32238878     0.08300
H1148       H  0.31285136  0.79623872  0.38408265     0.11900
H1149       H  0.31537376  0.91256411  0.29929170     0.11800
H1150       H  0.31916749  0.96205410  0.34668922     0.11500
H1151       H  0.31750803  0.97740246  0.40841537     0.12100
H1152       H  0.31312503  0.84661976  0.43163694     0.14000
C1153       C  0.34233151  0.83970447  0.17625587    -0.06000
C1154       C  0.35396778  0.80685530  0.17467601    -0.05900
C1155       C  0.37143207  0.81498288  0.17184720    -0.24100
C1156       C  0.37754742  0.85609842  0.17186674     0.18100
C1157       C  0.36592400  0.88933294  0.17324777     0.15400
C1158       C  0.34842172  0.88091374  0.17455392    -0.19100
C1159       C  0.37201429  0.93036243  0.17526661    -0.20900
C1160       C  0.38947997  0.93832331  0.17752166    -0.13500
C1161       C  0.40113785  0.90551993  0.17650492     0.03200
C1162       C  0.39507594  0.86450335  0.17256778    -0.25600
H1163       H  0.34957032  0.77497316  0.17629139     0.08300
H1164       H  0.38019412  0.78912001  0.17107894     0.11900
H1165       H  0.33958727  0.90656682  0.17661301     0.11800
H1166       H  0.36324168  0.95617247  0.17660805     0.11500
H1167       H  0.39387341  0.97000143  0.18086790     0.12100
H1168       H  0.40396095  0.83884119  0.17258796     0.14000
C1169       C  0.47528635  0.84237491  0.10941759    -0.06000
C1170       C  0.46679774  0.80526511  0.10056689    -0.05900
C1171       C  0.47396252  0.77715761  0.07709606    -0.24100
C1172       C  0.48992680  0.78517100  0.06222722     0.18100
C1173       C  0.49842617  0.82276394  0.07028893     0.15400
C1174       C  0.49098892  0.85130694  0.09343103    -0.19100
C1175       C  0.51449031  0.83059528  0.05592772    -0.20900
C1176       C  0.52213967  0.80145724  0.03415914    -0.13500
C1177       C  0.51391797  0.76374497  0.02594516     0.03200
C1178       C  0.49766322  0.75597918  0.03997987    -0.25600
H1179       H  0.45477852  0.79729345  0.11267961     0.08300
H1180       H  0.46721443  0.74858785  0.07133388     0.11900
H1181       H  0.49786697  0.87930354  0.10044051     0.11800
H1182       H  0.52123469  0.85914979  0.06177173     0.11500
H1183       H  0.53457675  0.80869051  0.02359279     0.12100
H1184       H  0.49112047  0.72721301  0.03388671     0.14000
C1185       C  0.50895617  0.55788266  0.99148830    -0.06000
C1186       C  0.49148960  0.55594656  0.98451947    -0.05900
C1187       C  0.48292908  0.51807425  0.98575424    -0.24100
C1188       C  0.49172112  0.48165259  0.99399687     0.18100
C1189       C  0.50912382  0.48328465  0.00248579     0.15400
C1190       C  0.51762701  0.52152960  0.00144413    -0.19100
C1191       C  0.51770597  0.44655732  0.01131472    -0.20900
C1192       C  0.50888494  0.40870487  0.01289901    -0.13500
C1193       C  0.49151332  0.40716415  0.00486163     0.03200
C1194       C  0.48321987  0.44371261  0.99437503    -0.25600
H1195       H  0.48459982  0.58337473  0.97653245     0.08300
H1196       H  0.46950237  0.51713357  0.97953680     0.11900
H1197       H  0.53116045  0.52254332  0.00668149     0.11800
H1198       H  0.53109580  0.44730770  0.01781985     0.11500
H1199       H  0.51546651  0.38108051  0.02145984     0.12100
H1200       H  0.46977648  0.44327074  0.98819756     0.14000
C1201       C  0.48073776  0.51423048  0.78301941    -0.06000
C1202       C  0.47242429  0.55107541  0.79281341    -0.05900
C1203       C  0.48021580  0.57961417  0.81503954    -0.24100
C1204       C  0.49648820  0.57191971  0.82817417     0.18100
C1205       C  0.50501196  0.53507921  0.81854104     0.15400
C1206       C  0.49713609  0.50658335  0.79597750    -0.19100
C1207       C  0.52119087  0.52710328  0.83202789    -0.20900
C1208       C  0.52860000  0.55455947  0.85567530    -0.13500
C1209       C  0.52011747  0.59091493  0.86606644     0.03200
C1210       C  0.50416490  0.59984014  0.85151760    -0.25600
H1211       H  0.45987212  0.55811170  0.78303998     0.08300
H1212       H  0.47345733  0.60761825  0.82210143     0.11900
H1213       H  0.50375936  0.47848693  0.78859712     0.11800
H1214       H  0.52794716  0.49909717  0.82496408     0.11500
H1215       H  0.54084448  0.54673227  0.86658974     0.12100
H1216       H  0.49734918  0.62735374  0.85966773     0.14000
C1217       C  0.65290310  0.57427306  0.92563468    -0.06000
C1218       C  0.64037649  0.54322334  0.92343229    -0.05900
C1219       C  0.62333460  0.55387292  0.91853856    -0.24100
C1220       C  0.61852195  0.59579181  0.91699796     0.18100
C1221       C  0.63109742  0.62720262  0.91791032     0.15400
C1222       C  0.64823268  0.61616582  0.92119472    -0.19100
C1223       C  0.62623508  0.66914084  0.91828656    -0.20900
C1224       C  0.60904353  0.67977004  0.92054360    -0.13500
C1225       C  0.59649126  0.64868065  0.92092086     0.03200
C1226       C  0.60130939  0.60682331  0.91737099    -0.25600
H1227       H  0.64368747  0.51082974  0.92668254     0.08300
H1228       H  0.61382345  0.52942996  0.91792468     0.11900
H1229       H  0.65776005  0.64049073  0.92318454     0.11800
H1230       H  0.63573838  0.69359717  0.91902134     0.11500
H1231       H  0.60557730  0.71212100  0.92336780     0.12100
H1232       H  0.59171341  0.58254133  0.91825834     0.14000
C1233       C  0.73529749  0.44861451  0.02088047    -0.06000
C1234       C  0.72851154  0.40835695  0.02501889    -0.05900
C1235       C  0.73584009  0.38011087  0.04800559    -0.24100
C1236       C  0.75002048  0.39162101  0.06771216     0.18100
C1237       C  0.75708386  0.43182814  0.06359885     0.15400
C1238       C  0.74978919  0.45993754  0.03999597    -0.19100
C1239       C  0.77106400  0.44356494  0.08382616    -0.20900
C1240       C  0.77761101  0.41633992  0.10864946    -0.13500
C1241       C  0.77047555  0.37656105  0.11352783     0.03200
C1242       C  0.75687676  0.36409849  0.09228151    -0.25600
H1243       H  0.71744462  0.39862227  0.01046052     0.08300
H1244       H  0.73023496  0.34947281  0.05077182     0.11900
H1245       H  0.75511671  0.49087648  0.03718572     0.11800
H1246       H  0.77665371  0.47422483  0.08111958     0.11500
H1247       H  0.78801692  0.42691329  0.12473684     0.12100
H1248       H  0.75107463  0.33380570  0.09601175     0.14000
C1249       C  0.48906808  0.80545339  0.23157238    -0.06000
C1250       C  0.50475594  0.79759451  0.21559285    -0.05900
C1251       C  0.51184548  0.75819747  0.21733275    -0.24100
C1252       C  0.50336414  0.72642462  0.23526558     0.18100
C1253       C  0.48782469  0.73430162  0.25230813     0.15400
C1254       C  0.48081547  0.77388842  0.25050324    -0.19100
C1255       C  0.47959721  0.70244971  0.27082330    -0.20900
C1256       C  0.48731973  0.66370437  0.27420307    -0.13500
C1257       C  0.50310611  0.65647926  0.25842328     0.03200
C1258       C  0.51055115  0.68726240  0.23744564    -0.25600
H1259       H  0.51116624  0.82131795  0.20043229     0.08300
H1260       H  0.52384904  0.75246382  0.20439719     0.11900
H1261       H  0.46864792  0.77965929  0.26282049     0.11800
H1262       H  0.46760476  0.70804469  0.28382962     0.11500
H1263       H  0.48147178  0.64040385  0.29069077     0.12100
H1264       H  0.52267246  0.68181696  0.22480742     0.14000
C1265       C  0.52018457  0.62079018  0.38368314    -0.06000
C1266       C  0.53021747  0.65128953  0.39995819    -0.05900
C1267       C  0.52312133  0.67851692  0.42439741    -0.24100
C1268       C  0.50567380  0.67678717  0.43229237     0.18100
C1269       C  0.49551639  0.64590462  0.41641531     0.15400
C1270       C  0.50287088  0.61769530  0.39279582    -0.19100
C1271       C  0.47802619  0.64468624  0.42344614    -0.20900
C1272       C  0.47061757  0.67373361  0.44575146    -0.13500
C1273       C  0.48046420  0.70478174  0.46189003     0.03200
C1274       C  0.49812744  0.70588368  0.45507168    -0.25600
H1275       H  0.54350314  0.65476723  0.39303200     0.08300
H1276       H  0.53117373  0.70189896  0.43619813     0.11900
H1277       H  0.49487495  0.59511907  0.37976250     0.11800
H1278       H  0.46999795  0.62142868  0.41139864     0.11500
H1279       H  0.45705542  0.67174938  0.45041023     0.12100
H1280       H  0.50597103  0.72938750  0.46729656     0.14000
C1281       C  0.47907211  0.36454101  0.12865451    -0.06000
C1282       C  0.49168461  0.34279646  0.14704422    -0.05900
C1283       C  0.50153171  0.36252610  0.17254460    -0.24100
C1284       C  0.49902498  0.40460736  0.18059325     0.18100
C1285       C  0.48590850  0.42641206  0.16355800     0.15400
C1286       C  0.47609352  0.40642154  0.13771324    -0.19100
C1287       C  0.48306720  0.46816555  0.17219663    -0.20900
C1288       C  0.49319217  0.48824741  0.19696518    -0.13500
C1289       C  0.50669499  0.46753650  0.21334582     0.03200
C1290       C  0.50948263  0.42537622  0.20502557    -0.25600
H1291       H  0.49441368  0.31071397  0.14083117     0.08300
H1292       H  0.51137609  0.34499062  0.18549695     0.11900
H1293       H  0.46649115  0.42389463  0.12395155     0.11800
H1294       H  0.47302114  0.48545583  0.15966001     0.11500
H1295       H  0.49063723  0.52050515  0.20289924     0.12100
H1296       H  0.51962767  0.40867564  0.21780396     0.14000
C1297       C  0.56101585  0.59972272  0.18414214    -0.06000
C1298       C  0.56380605  0.64274600  0.18034459    -0.05900
C1299       C  0.56553798  0.66068082  0.14746984    -0.24100
C1300       C  0.56463222  0.63593122  0.11767707     0.18100
C1301       C  0.56242196  0.59248154  0.12129508     0.15400
C1302       C  0.56054735  0.57473229  0.15436169    -0.19100
C1303       C  0.56174539  0.56749822  0.09171963    -0.20900
C1304       C  0.56282444  0.58534648  0.05886005    -0.13500
C1305       C  0.56438472  0.62867054  0.05469910     0.03200
C1306       C  0.56545600  0.65386528  0.08436826    -0.25600
H1307       H  0.56418787  0.66282421  0.20280986     0.08300
H1308       H  0.56731130  0.69398564  0.14534918     0.11900
H1309       H  0.55844334  0.54155130  0.15683882     0.11800
H1310       H  0.56005710  0.53417226  0.09395758     0.11500
H1311       H  0.56169555  0.56515989  0.03655938     0.12100
H1312       H  0.56655731  0.68727774  0.08154838     0.14000
C1313       C  0.68233928  0.63386760  0.18132998    -0.06000
C1314       C  0.67706620  0.66398217  0.15731291    -0.05900
C1315       C  0.67509326  0.65396537  0.12236997    -0.24100
C1316       C  0.67870549  0.61379866  0.11058606     0.18100
C1317       C  0.68337795  0.58276293  0.13466002     0.15400
C1318       C  0.68493231  0.59283549  0.16999834    -0.19100
C1319       C  0.68726870  0.54279575  0.12268147    -0.20900
C1320       C  0.68738740  0.53427238  0.08715305    -0.13500
C1321       C  0.68352931  0.56546482  0.06285416     0.03200
C1322       C  0.67863509  0.60485726  0.07496184    -0.25600
H1323       H  0.67493589  0.69573412  0.16544307     0.08300
H1324       H  0.67141808  0.67810895  0.10434158     0.11900
H1325       H  0.68920614  0.56948049  0.18822121     0.11800
H1326       H  0.69087024  0.51855653  0.14068412     0.11500
H1327       H  0.69126286  0.50368309  0.07865704     0.12100
H1328       H  0.67564869  0.62925454  0.05661422     0.14000
C1329       C  0.65279502  0.64793532  0.31118032    -0.06000
C1330       C  0.64035046  0.67892071  0.31313293    -0.05900
C1331       C  0.62309566  0.66819691  0.31580819    -0.24100
C1332       C  0.61795111  0.62629776  0.31509843     0.18100
C1333       C  0.63036843  0.59483977  0.31350924     0.15400
C1334       C  0.64769185  0.60584744  0.31254736    -0.19100
C1335       C  0.62522037  0.55306532  0.31078214    -0.20900
C1336       C  0.60794643  0.54271236  0.30790720    -0.13500
C1337       C  0.59550135  0.57376373  0.30913998     0.03200
C1338       C  0.60061666  0.61544357  0.31386433    -0.25600
H1339       H  0.64395775  0.71140044  0.31184525     0.08300
H1340       H  0.61372252  0.69273156  0.31682772     0.11900
H1341       H  0.65715450  0.58159827  0.31026393     0.11800
H1342       H  0.63458978  0.52854863  0.30934824     0.11500
H1343       H  0.60431085  0.51054191  0.30413699     0.12100
H1344       H  0.59113062  0.63978397  0.31415371     0.14000
C1345       C  0.73004388  0.60532126  0.37722679    -0.06000
C1346       C  0.74313924  0.62630919  0.39498913    -0.05900
C1347       C  0.75276826  0.60616245  0.42028937    -0.24100
C1348       C  0.74947516  0.56455905  0.42875993     0.18100
C1349       C  0.73586127  0.54358504  0.41237666     0.15400
C1350       C  0.72628085  0.56397251  0.38664360    -0.19100
C1351       C  0.73233516  0.50223631  0.42148131    -0.20900
C1352       C  0.74231252  0.48172791  0.44606996    -0.13500
C1353       C  0.75623045  0.50179765  0.46175536     0.03200
C1354       C  0.75967986  0.54346877  0.45301279    -0.25600
H1355       H  0.74647395  0.65800862  0.38832270     0.08300
H1356       H  0.76304839  0.62293580  0.43272137     0.11900
H1357       H  0.71629418  0.54723355  0.37322023     0.11800
H1358       H  0.72190546  0.48561861  0.40942928     0.11500
H1359       H  0.73929217  0.44974795  0.45242055     0.12100
H1360       H  0.77020112  0.55955706  0.46526249     0.14000
C1361       C  0.74162339  0.55759460  0.25582848    -0.06000
C1362       C  0.75812282  0.55135006  0.26836994    -0.05900
C1363       C  0.76527236  0.51177349  0.26748859    -0.24100
C1364       C  0.75589791  0.47810711  0.25441698     0.18100
C1365       C  0.73939123  0.48435183  0.24133424     0.15400
C1366       C  0.73250256  0.52403848  0.24163105    -0.19100
C1367       C  0.72998183  0.45079883  0.22826903    -0.20900
C1368       C  0.73726521  0.41151129  0.22646158    -0.13500
C1369       C  0.75392970  0.40538911  0.23812573     0.03200
C1370       C  0.76292630  0.43850137  0.25333418    -0.25600
H1371       H  0.76524204  0.57666894  0.27986322     0.08300
H1372       H  0.77799127  0.50735993  0.27749153     0.11900
H1373       H  0.71968219  0.52831128  0.23205379     0.11800
H1374       H  0.71722541  0.45522299  0.21845831     0.11500
H1375       H  0.73017735  0.38644874  0.21450518     0.12100
H1376       H  0.77584315  0.43419264  0.26233745     0.14000
C1377       C  0.53110313  0.29245317  0.40313856    -0.06000
C1378       C  0.51490078  0.30808166  0.39521160    -0.05900
C1379       C  0.51315848  0.34609427  0.37822170    -0.24100
C1380       C  0.52759078  0.36908676  0.36871194     0.18100
C1381       C  0.54394609  0.35338714  0.37614209     0.15400
C1382       C  0.54560063  0.31525146  0.39331275    -0.19100
C1383       C  0.55838859  0.37611969  0.36630826    -0.20900
C1384       C  0.55666008  0.41381511  0.34887209    -0.13500
C1385       C  0.54046150  0.42964559  0.34120503     0.03200
C1386       C  0.52594496  0.40727915  0.35157186    -0.25600
H1387       H  0.50350921  0.29124229  0.40266229     0.08300
H1388       H  0.50053090  0.35756930  0.37265624     0.11900
H1389       H  0.55815981  0.30355534  0.39926364     0.11800
H1390       H  0.57101432  0.36456782  0.37178580     0.11500
H1391       H  0.56805392  0.43044608  0.34109497     0.12100
H1392       H  0.51340108  0.41896743  0.34547909     0.14000
C1393       C  0.50723032  0.24934007  0.53435125    -0.06000
C1394       C  0.49509697  0.22759494  0.55419638    -0.05900
C1395       C  0.48530347  0.24799935  0.57915151    -0.24100
C1396       C  0.48720571  0.29083800  0.58448947     0.18100
C1397       C  0.49909315  0.31338564  0.56424566     0.15400
C1398       C  0.50915876  0.29245119  0.53950266    -0.19100
C1399       C  0.50076867  0.35637134  0.56939311    -0.20900
C1400       C  0.49127180  0.37645533  0.59514444    -0.13500
C1401       C  0.47980909  0.35409105  0.61627767     0.03200
C1402       C  0.47764290  0.31125537  0.61019791    -0.25600
H1403       H  0.49329634  0.19449911  0.55062464     0.08300
H1404       H  0.47623163  0.23017396  0.59435260     0.11900
H1405       H  0.51827272  0.30971847  0.52394252     0.11800
H1406       H  0.50969031  0.37436921  0.55396874     0.11500
H1407       H  0.49326354  0.40940643  0.59914445     0.12100
H1408       H  0.46894778  0.29341517  0.62628930     0.14000
C1409       C  0.48991362  0.99855541  0.27668620    -0.06000
C1410       C  0.50296971  0.97790519  0.29447377    -0.05900
C1411       C  0.51250115  0.99843930  0.31989247    -0.24100
C1412       C  0.50938531  0.04033103  0.32764489     0.18100
C1413       C  0.49652619  0.06163367  0.30941196     0.15400
C1414       C  0.48676858  0.04055819  0.28438745    -0.19100
C1415       C  0.49355321  0.10362625  0.31669521    -0.20900
C1416       C  0.50286113  0.12407203  0.34239990    -0.13500
C1417       C  0.51534469  0.10304445  0.36161307     0.03200
C1418       C  0.51868640  0.06108814  0.35364949    -0.25600
H1419       H  0.50563948  0.94557126  0.28907875     0.08300
H1420       H  0.52230300  0.98150290  0.33352725     0.11900
H1421       H  0.47684803  0.05697532  0.27063148     0.11800
H1422       H  0.48381086  0.12055811  0.30287396     0.11500
H1423       H  0.49987243  0.15618540  0.34796973     0.12100
H1424       H  0.52815036  0.04422789  0.36832347     0.14000
C1425       C  0.50562450  0.05680455  0.48763885    -0.06000
C1426       C  0.48851292  0.05251436  0.47831789    -0.05900
C1427       C  0.48061677  0.01383687  0.48009854    -0.24100
C1428       C  0.48981152  0.97913220  0.49128342     0.18100
C1429       C  0.50674176  0.98342099  0.50255539     0.15400
C1430       C  0.51451983  0.02243103  0.50100655    -0.19100
C1431       C  0.51568138  0.94849859  0.51450038    -0.20900
C1432       C  0.50757535  0.90975167  0.51634313    -0.13500
C1433       C  0.49068237  0.90555056  0.50545758     0.03200
C1434       C  0.48214295  0.94025048  0.49175767    -0.25600
H1435       H  0.48145424  0.07860237  0.46793194     0.08300
H1436       H  0.46762471  0.01085155  0.47200086     0.11900
H1437       H  0.52764240  0.02541284  0.50841772     0.11800
H1438       H  0.52859128  0.95140108  0.52311599     0.11500
H1439       H  0.51428726  0.88355882  0.52747378     0.12100
H1440       H  0.46916539  0.93776787  0.48323194     0.14000
C1441       C  0.70328180  0.92948396  0.39964211    -0.06000
C1442       C  0.68738878  0.91463787  0.38833866    -0.05900
C1443       C  0.68610692  0.87759149  0.36976349    -0.24100
C1444       C  0.70068318  0.85444828  0.36222579     0.18100
C1445       C  0.71676733  0.86916818  0.37308885     0.15400
C1446       C  0.71798655  0.90668359  0.39155907    -0.19100
C1447       C  0.73132566  0.84585903  0.36558376    -0.20900
C1448       C  0.72996634  0.80840748  0.34748147    -0.13500
C1449       C  0.71402439  0.79348317  0.33650700     0.03200
C1450       C  0.69941041  0.81680288  0.34406587    -0.25600
H1451       H  0.67584688  0.93149710  0.39416453     0.08300
H1452       H  0.67367757  0.86684225  0.36158632     0.11900
H1453       H  0.73031265  0.91759499  0.40025071     0.11800
H1454       H  0.74376830  0.85659318  0.37368308     0.11500
H1455       H  0.74145654  0.79124256  0.34187126     0.12100
H1456       H  0.68704399  0.80585129  0.33564220     0.14000
C1457       C  0.64980900  0.08097971  0.42068612    -0.06000
C1458       C  0.63736770  0.05052527  0.41467908    -0.05900
C1459       C  0.62031932  0.06174639  0.41057300    -0.24100
C1460       C  0.61536612  0.10343058  0.41401497     0.18100
C1461       C  0.62785706  0.13440097  0.41942767     0.15400
C1462       C  0.64505453  0.12307402  0.42170421    -0.19100
C1463       C  0.62282262  0.17568700  0.42495013    -0.20900
C1464       C  0.60555365  0.18574342  0.42730248    -0.13500
C1465       C  0.59302822  0.15500729  0.42287533     0.03200
C1466       C  0.59807653  0.11418176  0.41474588    -0.25600
H1467       H  0.64079339  0.01797914  0.41414217     0.08300
H1468       H  0.61089024  0.03756077  0.40660355     0.11900
H1469       H  0.65457196  0.14664598  0.42721406     0.11800
H1470       H  0.63223745  0.19980071  0.42933737     0.11500
H1471       H  0.60198654  0.21723938  0.43382039     0.12100
H1472       H  0.58854731  0.08995021  0.41197749     0.14000
C1473       C  0.72867686  0.11231398  0.36219480    -0.06000
C1474       C  0.74086584  0.08999184  0.34312740    -0.05900
C1475       C  0.75012630  0.10914479  0.31648938    -0.24100
C1476       C  0.74738265  0.15102332  0.30829954     0.18100
C1477       C  0.73474758  0.17336806  0.32645547     0.15400
C1478       C  0.72549870  0.15394422  0.35319422    -0.19100
C1479       C  0.73181033  0.21506831  0.31804965    -0.20900
C1480       C  0.74139366  0.23458860  0.29218261    -0.13500
C1481       C  0.75426998  0.21303301  0.27445127     0.03200
C1482       C  0.75717525  0.17107855  0.28260688    -0.25600
H1483       H  0.74365400  0.05797902  0.34951967     0.08300
H1484       H  0.75967118  0.09138929  0.30274002     0.11900
H1485       H  0.71618332  0.17166420  0.36764555     0.11800
H1486       H  0.72216835  0.23269869  0.33163462     0.11500
H1487       H  0.73891166  0.26694233  0.28643554     0.12100
H1488       H  0.76695749  0.15405063  0.26887883     0.14000
C1489       C  0.75474300  0.30586549  0.51340327    -0.06000
C1490       C  0.73919946  0.29833180  0.53022962    -0.05900
C1491       C  0.73198152  0.25851755  0.52994960    -0.24100
C1492       C  0.74026381  0.22568628  0.51300510     0.18100
C1493       C  0.75597064  0.23282494  0.49634059     0.15400
C1494       C  0.76301075  0.27276954  0.49643949    -0.19100
C1495       C  0.76426867  0.20002519  0.47940040    -0.20900
C1496       C  0.75644152  0.16107160  0.47678932    -0.13500
C1497       C  0.74032522  0.15439435  0.49144997     0.03200
C1498       C  0.73274535  0.18629656  0.51111287    -0.25600
H1499       H  0.73281834  0.32295031  0.54416446     0.08300
H1500       H  0.71991995  0.25339347  0.54295196     0.11900
H1501       H  0.77517678  0.27777848  0.48378321     0.11800
H1502       H  0.77644126  0.20503396  0.46680724     0.11500
H1503       H  0.76245213  0.13718055  0.46135733     0.12100
H1504       H  0.72033803  0.18144640  0.52282782     0.14000
C1505       C  0.53508709  0.78713792  0.89539429    -0.06000
C1506       C  0.51874752  0.79907363  0.88447222    -0.05900
C1507       C  0.51614399  0.83723972  0.86815425    -0.24100
C1508       C  0.52982372  0.86433123  0.86231386     0.18100
C1509       C  0.54637951  0.85224205  0.87232012     0.15400
C1510       C  0.54892011  0.81375317  0.88869383    -0.19100
C1511       C  0.56010328  0.87907642  0.86610651    -0.20900
C1512       C  0.55749805  0.91723657  0.84982475    -0.13500
C1513       C  0.54109872  0.92961286  0.83969027     0.03200
C1514       C  0.52724968  0.90311566  0.84638765    -0.25600
H1515       H  0.50781455  0.77931509  0.88932204     0.08300
H1516       H  0.50338399  0.84576868  0.86049544     0.11900
H1517       H  0.56156945  0.80509395  0.89702448     0.11800
H1518       H  0.57288114  0.87040726  0.87353372     0.11500
H1519       H  0.56841526  0.93699989  0.84478219     0.12100
H1520       H  0.51460900  0.91201738  0.83817755     0.14000
C1521       C  0.50481737  0.16250228  0.76254630    -0.06000
C1522       C  0.48731966  0.16431816  0.76931958    -0.05900
C1523       C  0.47879849  0.20225968  0.76711280    -0.24100
C1524       C  0.48776045  0.23877584  0.75862165     0.18100
C1525       C  0.50536844  0.23714770  0.75200595     0.15400
C1526       C  0.51369505  0.19913214  0.75366511    -0.19100
C1527       C  0.51439739  0.27352433  0.74366154    -0.20900
C1528       C  0.50584465  0.31111956  0.74003932    -0.13500
C1529       C  0.48821317  0.31279079  0.74514006     0.03200
C1530       C  0.47935270  0.27670625  0.75569328    -0.25600
H1531       H  0.48032102  0.13663801  0.77674472     0.08300
H1532       H  0.46525481  0.20311896  0.77225075     0.11900
H1533       H  0.52729008  0.19846262  0.74896564     0.11800
H1534       H  0.52797106  0.27262848  0.73885070     0.11500
H1535       H  0.51288605  0.33840078  0.73178881     0.12100
H1536       H  0.46570943  0.27748377  0.75972679     0.14000
C1537       C  0.52097991  0.12392720  0.88063393    -0.06000
C1538       C  0.53016971  0.15851962  0.89287004    -0.05900
C1539       C  0.52280596  0.18671045  0.91609414    -0.24100
C1540       C  0.50589661  0.18158870  0.92707841     0.18100
C1541       C  0.49655707  0.14673577  0.91530971     0.15400
C1542       C  0.50421566  0.11782060  0.89265679    -0.19100
C1543       C  0.47953098  0.14212227  0.92554008    -0.20900
C1544       C  0.47183710  0.17152829  0.94715074    -0.13500
C1545       C  0.48095695  0.20629689  0.95939474     0.03200
C1546       C  0.49809982  0.21099106  0.94914709    -0.25600
H1547       H  0.54296619  0.16444589  0.88360931     0.08300
H1548       H  0.53019984  0.21324489  0.92465423     0.11900
H1549       H  0.49678256  0.09203617  0.88271384     0.11800
H1550       H  0.47209860  0.11578614  0.91668821     0.11500
H1551       H  0.45869188  0.16670657  0.95459639     0.12100
H1552       H  0.50536553  0.23748357  0.95825572     0.14000
C1553       C  0.56342018  0.12593172  0.55316218    -0.06000
C1554       C  0.56406944  0.08250617  0.55715982    -0.05900
C1555       C  0.56445941  0.06458289  0.59010347    -0.24100
C1556       C  0.56428005  0.08975528  0.61965684     0.18100
C1557       C  0.56475731  0.13347063  0.61587756     0.15400
C1558       C  0.56431933  0.15127762  0.58268913    -0.19100
C1559       C  0.56484136  0.15867022  0.64539691    -0.20900
C1560       C  0.56352901  0.14087726  0.67827108    -0.13500
C1561       C  0.56200446  0.09755924  0.68226081     0.03200
C1562       C  0.56287029  0.07205506  0.65282056    -0.25600
H1563       H  0.56334851  0.06224024  0.53485222     0.08300
H1564       H  0.56425375  0.03100454  0.59245762     0.11900
H1565       H  0.56391645  0.18480924  0.57992650     0.11800
H1566       H  0.56536079  0.19222671  0.64303182     0.11500
H1567       H  0.56296169  0.16125257  0.70053190     0.12100
H1568       H  0.56188366  0.03858607  0.65561553     0.14000
C1569       C  0.50632578  0.96827899  0.71304085    -0.06000
C1570       C  0.49222973  0.98815959  0.69810809    -0.05900
C1571       C  0.48196447  0.96776938  0.67378631    -0.24100
C1572       C  0.48529486  0.92655106  0.66419415     0.18100
C1573       C  0.49909595  0.90563584  0.67969865     0.15400
C1574       C  0.50966046  0.92672725  0.70364482    -0.19100
C1575       C  0.50213803  0.86407605  0.67072654    -0.20900
C1576       C  0.49202325  0.84392653  0.64596303    -0.13500
C1577       C  0.47865158  0.86479509  0.62917407     0.03200
C1578       C  0.47525362  0.90620127  0.63895770    -0.25600
H1579       H  0.48928412  0.01998008  0.70485360     0.08300
H1580       H  0.47140779  0.98436582  0.66239640     0.11900
H1581       H  0.52031606  0.91070213  0.71524908     0.11800
H1582       H  0.51255637  0.84727971  0.68243889     0.11500
H1583       H  0.49513462  0.81228401  0.63898299     0.12100
H1584       H  0.46508277  0.92296994  0.62633021     0.14000
C1585       C  0.71223969  0.43586844  0.88789152    -0.06000
C1586       C  0.72709404  0.42937817  0.86831679    -0.05900
C1587       C  0.72963906  0.39192932  0.85080453    -0.24100
C1588       C  0.71747245  0.36007501  0.85297676     0.18100
C1589       C  0.70223380  0.36688242  0.87167451     0.15400
C1590       C  0.69963655  0.40484227  0.88864833    -0.19100
C1591       C  0.68998865  0.33525739  0.87374046    -0.20900
C1592       C  0.69273393  0.29736094  0.85723175    -0.13500
C1593       C  0.70786054  0.29013647  0.83881186     0.03200
C1594       C  0.72026841  0.32153639  0.83688790    -0.25600
H1595       H  0.73698102  0.45289361  0.86735453     0.08300
H1596       H  0.74130861  0.38749506  0.83632511     0.11900
H1597       H  0.68820490  0.40934122  0.90392463     0.11800
H1598       H  0.67824437  0.33991588  0.88791972     0.11500
H1599       H  0.68293208  0.27364240  0.85858029     0.12100
H1600       H  0.73177539  0.31644573  0.82198449     0.14000
C1601       C  0.67980990  0.10054301  0.55304282    -0.06000
C1602       C  0.68140145  0.14379811  0.55728182    -0.05900
C1603       C  0.68216313  0.16122859  0.59030085    -0.24100
C1604       C  0.68130938  0.13570306  0.61963950     0.18100
C1605       C  0.67860511  0.09248785  0.61563666     0.15400
C1606       C  0.67782250  0.07519389  0.58237996    -0.19100
C1607       C  0.67761025  0.06698499  0.64494704    -0.20900
C1608       C  0.68020750  0.08372670  0.67779607    -0.13500
C1609       C  0.68386901  0.12627112  0.68193932     0.03200
C1610       C  0.68390017  0.15234977  0.65276901    -0.25600
H1611       H  0.68302701  0.16402970  0.53507397     0.08300
H1612       H  0.68411064  0.19443503  0.59284929     0.11900
H1613       H  0.67652745  0.04183625  0.57938869     0.11800
H1614       H  0.67539771  0.03387288  0.64240005     0.11500
H1615       H  0.67998284  0.06295266  0.69987495     0.12100
H1616       H  0.68654858  0.18524646  0.65567631     0.14000
C1617       C  0.59572299  0.07126448  0.80650624    -0.06000
C1618       C  0.60806997  0.04066153  0.80093495    -0.05900
C1619       C  0.62535627  0.05082789  0.80222618    -0.24100
C1620       C  0.63052716  0.09206973  0.80788121     0.18100
C1621       C  0.61822568  0.12303601  0.81397236     0.15400
C1622       C  0.60092782  0.11217232  0.81421845    -0.19100
C1623       C  0.62338558  0.16470194  0.81759831    -0.20900
C1624       C  0.64052895  0.17580501  0.81370379    -0.13500
C1625       C  0.65276343  0.14516183  0.80766677     0.03200
C1626       C  0.64772641  0.10323425  0.80567860    -0.25600
H1627       H  0.60433007  0.00912872  0.79468435     0.08300
H1628       H  0.63465835  0.02680925  0.79727007     0.11900
H1629       H  0.59148668  0.13623932  0.81782332     0.11800
H1630       H  0.61408802  0.18886120  0.82205631     0.11500
H1631       H  0.64422542  0.20821284  0.81510490     0.12100
H1632       H  0.65712554  0.07954095  0.80022651     0.14000
C1633       C  0.74104199  0.25001104  0.71085161    -0.06000
C1634       C  0.75216765  0.22706448  0.68978327    -0.05900
C1635       C  0.76234589  0.24679397  0.66484174    -0.24100
C1636       C  0.76192952  0.29011404  0.66094845     0.18100
C1637       C  0.75130394  0.31373971  0.68295553     0.15400
C1638       C  0.74074538  0.29353502  0.70744940    -0.19100
C1639       C  0.75124783  0.35711810  0.67966875    -0.20900
C1640       C  0.76084733  0.37669473  0.65370820    -0.13500
C1641       C  0.77072923  0.35343778  0.63025908     0.03200
C1642       C  0.77155799  0.31003283  0.63479470    -0.25600
H1643       H  0.75274406  0.19356576  0.69220840     0.08300
H1644       H  0.77047625  0.22809535  0.64844476     0.11900
H1645       H  0.73248199  0.31159306  0.72410156     0.11800
H1646       H  0.74339013  0.37589012  0.69655550     0.11500
H1647       H  0.75990451  0.41010068  0.65104663     0.12100
H1648       H  0.77902807  0.29151722  0.61698711     0.14000
C1649       C  0.21342450  0.45914689  0.39673445    -0.06000
C1650       C  0.22911884  0.44850982  0.38173538    -0.05900
C1651       C  0.23129841  0.41001260  0.36575158    -0.24100
C1652       C  0.21786000  0.38133254  0.36479248     0.18100
C1653       C  0.20196486  0.39195875  0.37948929     0.15400
C1654       C  0.19981396  0.43086711  0.39510429    -0.19100
C1655       C  0.18849474  0.36340588  0.37846721    -0.20900
C1656       C  0.19057992  0.32519272  0.36206707    -0.13500
C1657       C  0.20622783  0.31462716  0.34685960     0.03200
C1658       C  0.21995268  0.34250005  0.34891036    -0.25600
H1659       H  0.23982217  0.46975342  0.38288937     0.08300
H1660       H  0.24353998  0.40250177  0.35450436     0.11900
H1661       H  0.18773482  0.43850477  0.40705204     0.11800
H1662       H  0.17625786  0.37094324  0.38972781     0.11500
H1663       H  0.17981426  0.30416109  0.36057362     0.12100
H1664       H  0.23196877  0.33482158  0.33671672     0.14000
C1665       C  0.27046905  0.39711648  0.61207007    -0.06000
C1666       C  0.27918668  0.43396456  0.60343736    -0.05900
C1667       C  0.27229638  0.46222204  0.57976594    -0.24100
C1668       C  0.25635666  0.45465446  0.56473643     0.18100
C1669       C  0.24764988  0.41728293  0.57254461     0.15400
C1670       C  0.25486411  0.38850571  0.59568687    -0.19100
C1671       C  0.23158803  0.40999967  0.55802241    -0.20900
C1672       C  0.22411963  0.43959053  0.53634155    -0.13500
C1673       C  0.23256049  0.47709463  0.52847968     0.03200
C1674       C  0.24882153  0.48417780  0.54265874    -0.25600
H1675       H  0.29113353  0.44155507  0.61583749     0.08300
H1676       H  0.27919315  0.49064711  0.57407922     0.11900
H1677       H  0.24782718  0.36062323  0.60251392     0.11800
H1678       H  0.22470180  0.38155855  0.56371856     0.11500
H1679       H  0.21169732  0.43297681  0.52561230     0.12100
H1680       H  0.25557293  0.51276517  0.53676340     0.14000
C1681       C  0.23208919  0.64709361  0.36944050    -0.06000
C1682       C  0.24295595  0.62413419  0.34769732    -0.05900
C1683       C  0.25101337  0.64274284  0.31939536    -0.24100
C1684       C  0.24833702  0.68474231  0.31196039     0.18100
C1685       C  0.23701606  0.70798338  0.33278281     0.15400
C1686       C  0.22900190  0.68908607  0.36150053    -0.19100
C1687       C  0.23413958  0.74986913  0.32475119    -0.20900
C1688       C  0.24257658  0.76860161  0.29678946    -0.13500
C1689       C  0.25424657  0.74602350  0.27663128     0.03200
C1690       C  0.25697680  0.70394081  0.28429454    -0.25600
H1691       H  0.24557908  0.59174475  0.35297368     0.08300
H1692       H  0.25953177  0.62434940  0.30357491     0.11900
H1693       H  0.22065530  0.70719591  0.37792885     0.11800
H1694       H  0.22547498  0.76823915  0.34024694     0.11500
H1695       H  0.24027446  0.80112560  0.29141889     0.12100
H1696       H  0.26581736  0.68613321  0.26871420     0.14000
C1697       C  0.25465095  0.83601619  0.49097664    -0.06000
C1698       C  0.25762703  0.81878194  0.45813931    -0.05900
C1699       C  0.25522018  0.77640880  0.45240065    -0.24100
C1700       C  0.24999613  0.75046854  0.47958504     0.18100
C1701       C  0.24633516  0.76772884  0.51244089     0.15400
C1702       C  0.24849118  0.81056912  0.51781149    -0.19100
C1703       C  0.24086317  0.74167680  0.53943660    -0.20900
C1704       C  0.23809518  0.69939666  0.53329848    -0.13500
C1705       C  0.24135769  0.68232752  0.50050262     0.03200
C1706       C  0.24791944  0.70773040  0.47413703    -0.25600
H1707       H  0.26299542  0.83771294  0.43757735     0.08300
H1708       H  0.25800206  0.76371951  0.42704409     0.11900
H1709       H  0.24683570  0.82340709  0.54355382     0.11800
H1710       H  0.23801443  0.75429232  0.56478661     0.11500
H1711       H  0.23240778  0.68045685  0.55349306     0.12100
H1712       H  0.24978399  0.69499378  0.44841034     0.14000
C1713       C  0.03956623  0.80297244  0.37635083    -0.06000
C1714       C  0.05433648  0.80959041  0.35644344    -0.05900
C1715       C  0.05663889  0.84656549  0.33793161    -0.24100
C1716       C  0.04433893  0.87790060  0.33952783     0.18100
C1717       C  0.02931492  0.87117538  0.35902919     0.15400
C1718       C  0.02693285  0.83360680  0.37692239    -0.19100
C1719       C  0.01704137  0.90246060  0.36087283    -0.20900
C1720       C  0.01950146  0.93989478  0.34327774    -0.13500
C1721       C  0.03432791  0.94695606  0.32368421     0.03200
C1722       C  0.04679586  0.91584636  0.32208688    -0.25600
H1723       H  0.06426435  0.78639120  0.35571874     0.08300
H1724       H  0.06818965  0.85100111  0.32300123     0.11900
H1725       H  0.01561394  0.82903218  0.39258705     0.11800
H1726       H  0.00549200  0.89791349  0.37578838     0.11500
H1727       H  0.00968288  0.96332123  0.34476010     0.12100
H1728       H  0.05815526  0.92072420  0.30661537     0.14000
C1729       C  0.09181679  0.64517161  0.41403638    -0.06000
C1730       C  0.09360456  0.60171830  0.41130513    -0.05900
C1731       C  0.10966173  0.58317541  0.41178264    -0.24100
C1732       C  0.12435721  0.60768884  0.41431604     0.18100
C1733       C  0.12276849  0.65151678  0.41404513     0.15400
C1734       C  0.10654488  0.66999015  0.41435985    -0.19100
C1735       C  0.13743523  0.67615205  0.41506935    -0.20900
C1736       C  0.15338747  0.65779485  0.41836148    -0.13500
C1737       C  0.15512154  0.61433807  0.42148420     0.03200
C1738       C  0.14050457  0.58928056  0.41859663    -0.25600
H1739       H  0.08250549  0.58167894  0.41105815     0.08300
H1740       H  0.11053703  0.54959839  0.41139172     0.11900
H1741       H  0.10538391  0.70345854  0.41624065     0.11800
H1742       H  0.13655070  0.70972777  0.41442682     0.11500
H1743       H  0.16435655  0.67808623  0.42052616     0.12100
H1744       H  0.14162475  0.55582806  0.42071531     0.14000
C1745       C  0.98101146  0.51025768  0.28161898    -0.06000
C1746       C  0.99094948  0.48743089  0.30500816    -0.05900
C1747       C  0.00093523  0.50759456  0.32980232    -0.24100
C1748       C  0.00153371  0.55111289  0.33112559     0.18100
C1749       C  0.99165121  0.57441944  0.30756348     0.15400
C1750       C  0.98122533  0.55385715  0.28332385    -0.19100
C1751       C  0.99252691  0.61789241  0.30842100    -0.20900
C1752       C  0.00278487  0.63810015  0.33273173    -0.13500
C1753       C  0.01238466  0.61538564  0.35691755     0.03200
C1754       C  0.01178552  0.57167287  0.35565823    -0.25600
H1755       H  0.99101258  0.45379491  0.30398507     0.08300
H1756       H  0.00839198  0.48913175  0.34759895     0.11900
H1757       H  0.97381081  0.57167454  0.26497439     0.11800
H1758       H  0.98514925  0.63633823  0.29047337     0.11500
H1759       H  0.00285250  0.67174049  0.33312020     0.12100
H1760       H  0.01895093  0.55363860  0.37426087     0.14000
C1761       C  0.00149008  0.58818882  0.48365055    -0.06000
C1762       C  0.98508926  0.58107138  0.47073086    -0.05900
C1763       C  0.97762699  0.54160840  0.47358471    -0.24100
C1764       C  0.98666984  0.50857650  0.48854218     0.18100
C1765       C  0.00283852  0.51595123  0.50293035     0.15400
C1766       C  0.00985917  0.55585448  0.50139262    -0.19100
C1767       C  0.01207564  0.48294632  0.51728839    -0.20900
C1768       C  0.00531138  0.44272931  0.51748403    -0.13500
C1769       C  0.98916822  0.43496908  0.50351648     0.03200
C1770       C  0.97994606  0.46820372  0.48894855    -0.25600
H1771       H  0.97844519  0.60524886  0.45680381     0.08300
H1772       H  0.96512236  0.53644461  0.46265893     0.11900
H1773       H  0.02252289  0.56073074  0.51170132     0.11800
H1774       H  0.02454457  0.48824361  0.52835560     0.11500
H1775       H  0.01247442  0.41798552  0.52952086     0.12100
H1776       H  0.96737092  0.46284145  0.47837347     0.14000
C1777       C  0.21404049  0.81299184  0.84171028    -0.06000
C1778       C  0.22944502  0.82548171  0.85697328    -0.05900
C1779       C  0.23069261  0.86356189  0.87423924    -0.24100
C1780       C  0.21658182  0.88994493  0.87638277     0.18100
C1781       C  0.20101879  0.87749508  0.86132705     0.15400
C1782       C  0.19983312  0.83917002  0.84428820    -0.19100
C1783       C  0.18687305  0.90364524  0.86343170    -0.20900
C1784       C  0.18800367  0.94145887  0.88090542    -0.13500
C1785       C  0.20334030  0.95408083  0.89633801     0.03200
C1786       C  0.21768953  0.92833367  0.89357637    -0.25600
H1787       H  0.24061328  0.80604701  0.85517387     0.08300
H1788       H  0.24272579  0.87250971  0.88567514     0.11900
H1789       H  0.18790604  0.83019146  0.83237846     0.11800
H1790       H  0.17486315  0.89463422  0.85191697     0.11500
H1791       H  0.17677279  0.96069171  0.88269003     0.12100
H1792       H  0.22953965  0.93753325  0.90568233     0.14000
C1793       C  0.18400811  0.67092504  0.67600347    -0.06000
C1794       C  0.18452563  0.70338532  0.65157059    -0.05900
C1795       C  0.18287993  0.69516993  0.61629667    -0.24100
C1796       C  0.18082150  0.65427909  0.60471804     0.18100
C1797       C  0.17953553  0.62155466  0.62908577     0.15400
C1798       C  0.18095188  0.63012116  0.66461256    -0.19100
C1799       C  0.17776779  0.58058415  0.61739798    -0.20900
C1800       C  0.17831560  0.57189585  0.58199502    -0.13500
C1801       C  0.18041606  0.60406121  0.55762582     0.03200
C1802       C  0.18100733  0.64539380  0.56917733    -0.25600
H1803       H  0.18679188  0.73515000  0.65961439     0.08300
H1804       H  0.18385980  0.72063866  0.59801107     0.11900
H1805       H  0.18059943  0.60480128  0.68314427     0.11800
H1806       H  0.17670966  0.55510040  0.63564933     0.11500
H1807       H  0.17783056  0.53975658  0.57376787     0.12100
H1808       H  0.18280625  0.67043954  0.55070497     0.14000
C1809       C  0.24256031  0.58587905  0.74581854    -0.06000
C1810       C  0.25919056  0.58012392  0.75786645    -0.05900
C1811       C  0.26660449  0.54093663  0.75637775    -0.24100
C1812       C  0.25731757  0.50714588  0.74340302     0.18100
C1813       C  0.24092178  0.51327354  0.72961615     0.15400
C1814       C  0.23386202  0.55278481  0.73003953    -0.19100
C1815       C  0.23155242  0.47953291  0.71688250    -0.20900
C1816       C  0.23850273  0.43988046  0.71738153    -0.13500
C1817       C  0.25487581  0.43360642  0.73065368     0.03200
C1818       C  0.26412228  0.46730878  0.74410552    -0.25600
H1819       H  0.26608339  0.60528123  0.77014876     0.08300
H1820       H  0.27927511  0.53670356  0.76668315     0.11900
H1821       H  0.22102176  0.55689325  0.72051986     0.11800
H1822       H  0.21893294  0.48386347  0.70634165     0.11500
H1823       H  0.23130153  0.41439684  0.70634871     0.12100
H1824       H  0.27688645  0.46291022  0.75393612     0.14000
C1825       C  0.22662191  0.61499210  0.87153075    -0.06000
C1826       C  0.21767841  0.57901064  0.88166433    -0.05900
C1827       C  0.22432791  0.55211708  0.90674835    -0.24100
C1828       C  0.24027427  0.56010556  0.92164130     0.18100
C1829       C  0.24928501  0.59641339  0.91190246     0.15400
C1830       C  0.24230806  0.62386957  0.88740073    -0.19100
C1831       C  0.26537721  0.60407037  0.92605134    -0.20900
C1832       C  0.27257476  0.57595735  0.94934203    -0.13500
C1833       C  0.26382815  0.53959606  0.95934837     0.03200
C1834       C  0.24752787  0.53207696  0.94549733    -0.25600
H1835       H  0.20564963  0.57125469  0.86966493     0.08300
H1836       H  0.21720259  0.52448075  0.91379658     0.11900
H1837       H  0.24951511  0.65102612  0.87937332     0.11800
H1838       H  0.27250270  0.63164696  0.91882369     0.11500
H1839       H  0.28506627  0.58285214  0.95961713     0.12100
H1840       H  0.24058801  0.50427941  0.95290661     0.14000
C1841       C  0.23961055  0.77442367  0.70619476    -0.06000
C1842       C  0.25075917  0.75087548  0.68557787    -0.05900
C1843       C  0.25974758  0.76923378  0.65818509    -0.24100
C1844       C  0.25804984  0.81177353  0.65127244     0.18100
C1845       C  0.24695168  0.83576306  0.67203371     0.15400
C1846       C  0.23760692  0.81685811  0.69896401    -0.19100
C1847       C  0.24545054  0.87836575  0.66564636    -0.20900
C1848       C  0.25466951  0.89701506  0.63882789    -0.13500
C1849       C  0.26551318  0.87351443  0.61738921     0.03200
C1850       C  0.26717843  0.83069680  0.62393916    -0.25600
H1851       H  0.25239535  0.71798929  0.69046079     0.08300
H1852       H  0.26812350  0.75020392  0.64258451     0.11900
H1853       H  0.22909022  0.83530672  0.71476949     0.11800
H1854       H  0.23706395  0.89731494  0.68130118     0.11500
H1855       H  0.25295222  0.92995386  0.63439579     0.12100
H1856       H  0.27532385  0.81203528  0.60752109     0.14000
C1857       C  0.04076987  0.44748031  0.83325378    -0.06000
C1858       C  0.05621007  0.43529961  0.84827821    -0.05900
C1859       C  0.05705830  0.39924805  0.86829716    -0.24100
C1860       C  0.04252475  0.37454721  0.87316279     0.18100
C1861       C  0.02690666  0.38683245  0.85841630     0.15400
C1862       C  0.02609526  0.42340465  0.83886653    -0.19100
C1863       C  0.01241542  0.36195588  0.86294259    -0.20900
C1864       C  0.01338617  0.32505282  0.88178002    -0.13500
C1865       C  0.02885897  0.31243258  0.89644973     0.03200
C1866       C  0.04339103  0.33752091  0.89214735    -0.25600
H1867       H  0.06766790  0.45351065  0.84431446     0.08300
H1868       H  0.06912288  0.39034518  0.87949161     0.11900
H1869       H  0.01415958  0.43238112  0.82710655     0.11800
H1870       H  0.00035697  0.37090012  0.85174012     0.11500
H1871       H  0.00200145  0.30632717  0.88478086     0.12100
H1872       H  0.05538919  0.32824095  0.90345986     0.14000
C1873       C  0.06350044  0.59316124  0.66410910    -0.06000
C1874       C  0.06376167  0.56074607  0.63966561    -0.05900
C1875       C  0.06452711  0.56929012  0.60429771    -0.24100
C1876       C  0.06493214  0.61044093  0.59262404     0.18100
C1877       C  0.06535677  0.64328626  0.61692816     0.15400
C1878       C  0.06479947  0.63444798  0.65253904    -0.19100
C1879       C  0.06554037  0.68445370  0.60516451    -0.20900
C1880       C  0.06448315  0.69300470  0.56979591    -0.13500
C1881       C  0.06336390  0.66054996  0.54550681     0.03200
C1882       C  0.06411339  0.61925343  0.55710138    -0.25600
H1883       H  0.06283339  0.52860867  0.64783188     0.08300
H1884       H  0.06423349  0.54372951  0.58607284     0.11900
H1885       H  0.06450550  0.65970364  0.67107129     0.11800
H1886       H  0.06590302  0.71004272  0.62335064     0.11500
H1887       H  0.06394270  0.72514856  0.56155890     0.12100
H1888       H  0.06314150  0.59395901  0.53869207     0.14000
C1889       C  0.09694875  0.59220278  0.79408410    -0.06000
C1890       C  0.10972148  0.56210291  0.79634086    -0.05900
C1891       C  0.12666765  0.57405707  0.80158280    -0.24100
C1892       C  0.13114260  0.61635511  0.80343759     0.18100
C1893       C  0.11837666  0.64685818  0.80124197     0.15400
C1894       C  0.10136385  0.63455092  0.79735673    -0.19100
C1895       C  0.12292128  0.68915383  0.80124916    -0.20900
C1896       C  0.14005813  0.70112267  0.80174759    -0.13500
C1897       C  0.15287239  0.67104424  0.80349746     0.03200
C1898       C  0.14824037  0.62868069  0.80549445    -0.25600
H1899       H  0.10661019  0.52944254  0.79375589     0.08300
H1900       H  0.13634927  0.55029095  0.80298939     0.11900
H1901       H  0.09164592  0.65815451  0.79496802     0.11800
H1902       H  0.11325649  0.71291316  0.79935831     0.11500
H1903       H  0.14331573  0.73377526  0.79980609     0.12100
H1904       H  0.15800764  0.60503750  0.80606682     0.14000
C1905       C  0.00942725  0.47818476  0.70243541    -0.06000
C1906       C  0.99567649  0.49826354  0.68641290    -0.05900
C1907       C  0.98518503  0.47716395  0.66323260    -0.24100
C1908       C  0.98809643  0.43529851  0.65565795     0.18100
C1909       C  0.00163416  0.41427941  0.67203205     0.15400
C1910       C  0.01232453  0.43592866  0.69519886    -0.19100
C1911       C  0.00435611  0.37221247  0.66442529    -0.20900
C1912       C  0.99436791  0.35192332  0.63959837    -0.13500
C1913       C  0.98138523  0.37319606  0.62196679     0.03200
C1914       C  0.97801984  0.41463792  0.63105931    -0.25600
H1915       H  0.99310154  0.53070812  0.69156345     0.08300
H1916       H  0.97486329  0.49376801  0.65097773     0.11900
H1917       H  0.02273279  0.41993697  0.70772745     0.11800
H1918       H  0.01454615  0.35534321  0.67686968     0.11500
H1919       H  0.99731427  0.32002583  0.63313075     0.12100
H1920       H  0.96812799  0.43159736  0.61769366     0.14000
C1921       C  0.96583945  0.68725063  0.08540263    -0.06000
C1922       C  0.98103971  0.67684518  0.10235140    -0.05900
C1923       C  0.98213558  0.64022649  0.12193777    -0.24100
C1924       C  0.96807665  0.61331718  0.12472928     0.18100
C1925       C  0.95274561  0.62383245  0.10796662     0.15400
C1926       C  0.95172625  0.66054035  0.08864537    -0.19100
C1927       C  0.93861323  0.59741383  0.11061624    -0.20900
C1928       C  0.93952948  0.56102282  0.13006555    -0.13500
C1929       C  0.95463681  0.55005501  0.14699469     0.03200
C1930       C  0.96897889  0.57623159  0.14401248    -0.25600
H1931       H  0.99211701  0.69679391  0.10020299     0.08300
H1932       H  0.99399675  0.63282129  0.13467830     0.11900
H1933       H  0.93992139  0.66791320  0.07563396     0.11800
H1934       H  0.92678732  0.60503289  0.09781175     0.11500
H1935       H  0.92834470  0.54137388  0.13190079     0.12100
H1936       H  0.98065247  0.56824460  0.15724706     0.14000
C1937       C  0.01396620  0.97143101  0.19173246    -0.06000
C1938       C  0.02310051  0.93603426  0.18133422    -0.05900
C1939       C  0.01574491  0.90620545  0.15976653    -0.24100
C1940       C  0.99908454  0.91110396  0.14781645     0.18100
C1941       C  0.98977516  0.94675040  0.15748742     0.15400
C1942       C  0.99722880  0.97661921  0.17952765    -0.19100
C1943       C  0.97324517  0.95199034  0.14462503    -0.20900
C1944       C  0.96621455  0.92279121  0.12181569    -0.13500
C1945       C  0.97539057  0.88725728  0.11204001     0.03200
C1946       C  0.99176454  0.88137477  0.12567713    -0.25600
H1947       H  0.03596255  0.93098213  0.19028008     0.08300
H1948       H  0.02311834  0.87926221  0.15241756     0.11900
H1949       H  0.99000639  0.00367862  0.18722015     0.11800
H1950       H  0.96590797  0.97914512  0.15154326     0.11500
H1951       H  0.95370013  0.92842125  0.11121710     0.12100
H1952       H  0.99917552  0.85475209  0.11763085     0.14000
C1953       C  0.98889633  0.92091957  0.99183394    -0.06000
C1954       C  0.00486983  0.92922824  0.00642394    -0.05900
C1955       C  0.01165796  0.96918979  0.00539262    -0.24100
C1956       C  0.00259980  0.00136777  0.98963733     0.18100
C1957       C  0.98671280  0.99329616  0.97408414     0.15400
C1958       C  0.97999981  0.95300768  0.97508119    -0.19100
C1959       C  0.97781164  0.02573232  0.95804983    -0.20900
C1960       C  0.98502018  0.06544869  0.95606949    -0.13500
C1961       C  0.00108414  0.07312950  0.97049922     0.03200
C1962       C  0.00945607  0.04128092  0.98842088    -0.25600
H1963       H  0.01182984  0.90521238  0.01990784     0.08300
H1964       H  0.02389616  0.97503762  0.01728928     0.11900
H1965       H  0.96757083  0.94707940  0.96402346     0.11800
H1966       H  0.96556603  0.02007769  0.94614034     0.11500
H1967       H  0.97844572  0.08948157  0.94181958     0.12100
H1968       H  0.02183652  0.04691844  0.99983567     0.14000
C1969       C  0.99277708  0.72857716  0.95042713    -0.06000
C1970       C  0.00168703  0.75406307  0.92691979    -0.05900
C1971       C  0.01156826  0.73674294  0.90046877    -0.24100
C1972       C  0.01306427  0.69350358  0.89747474     0.18100
C1973       C  0.00467539  0.66762362  0.92185628     0.15400
C1974       C  0.99438215  0.68525980  0.94785130    -0.19100
C1975       C  0.00651598  0.62448973  0.91948692    -0.20900
C1976       C  0.01577637  0.60704189  0.89227442    -0.13500
C1977       C  0.02336333  0.63222951  0.86660202     0.03200
C1978       C  0.02235880  0.67568776  0.86999060    -0.25600
H1979       H  0.00069869  0.78756264  0.92860384     0.08300
H1980       H  0.01794573  0.75717667  0.88223206     0.11900
H1981       H  0.98778483  0.66542208  0.96625292     0.11800
H1982       H  0.00040214  0.60413643  0.93815517     0.11500
H1983       H  0.01636426  0.57349448  0.89054542     0.12100
H1984       H  0.02805130  0.69554964  0.85041290     0.14000
C1985       C  0.79048192  0.03435523  0.09028378    -0.06000
C1986       C  0.80594667  0.04628249  0.10552198    -0.05900
C1987       C  0.80741197  0.08413989  0.12278612    -0.24100
C1988       C  0.79347516  0.11094287  0.12484462     0.18100
C1989       C  0.77774286  0.09895192  0.11026093     0.15400
C1990       C  0.77629525  0.06054525  0.09333297    -0.19100
C1991       C  0.76383124  0.12591210  0.11236956    -0.20900
C1992       C  0.76548214  0.16430480  0.12891716    -0.13500
C1993       C  0.78108436  0.17646761  0.14353672     0.03200
C1994       C  0.79505558  0.14955771  0.14122913    -0.25600
H1995       H  0.81704820  0.02663077  0.10352840     0.08300
H1996       H  0.81953125  0.09277031  0.13399343     0.11900
H1997       H  0.76433676  0.05181599  0.08144686     0.11800
H1998       H  0.75167129  0.11725284  0.10136315     0.11500
H1999       H  0.75446231  0.18425110  0.13067201     0.12100
H2000       H  0.80710354  0.15826232  0.15274929     0.14000
C2001       C  0.72663572  0.09715687  0.87864270    -0.06000
C2002       C  0.71672680  0.06495861  0.89295661    -0.05900
C2003       C  0.72371975  0.03707801  0.91678357    -0.24100
C2004       C  0.74091527  0.04016505  0.92605860     0.18100
C2005       C  0.75098062  0.07255126  0.91191089     0.15400
C2006       C  0.74371829  0.10120871  0.88875333    -0.19100
C2007       C  0.76826830  0.07501711  0.92039539    -0.20900
C2008       C  0.77549130  0.04607264  0.94295884    -0.13500
C2009       C  0.76561181  0.01397189  0.95763095     0.03200
C2010       C  0.74826841  0.01114238  0.94882827    -0.25600
H2011       H  0.70364796  0.06072364  0.88493968     0.08300
H2012       H  0.71580334  0.01238781  0.92718175     0.11900
H2013       H  0.75161605  0.12506481  0.87696682     0.11800
H2014       H  0.77623184  0.09933271  0.90953604     0.11500
H2015       H  0.78887088  0.04900671  0.94906613     0.12100
H2016       H  0.74046876  0.98656965  0.95980331     0.14000
C2017       C  0.84486890  0.88183869  0.05884696    -0.06000
C2018       C  0.85701528  0.91245593  0.06652532    -0.05900
C2019       C  0.87417328  0.90206619  0.06974367    -0.24100
C2020       C  0.87955974  0.86113735  0.06389754     0.18100
C2021       C  0.86743173  0.82974820  0.05713357     0.15400
C2022       C  0.85007622  0.84012946  0.05559853    -0.19100
C2023       C  0.87300137  0.78927196  0.04958922    -0.20900
C2024       C  0.89041995  0.78077645  0.04627240    -0.13500
C2025       C  0.90254756  0.81227754  0.05159817     0.03200
C2026       C  0.89694460  0.85188833  0.06211905    -0.25600
H2027       H  0.85327848  0.94467284  0.06897193     0.08300
H2028       H  0.88334349  0.92649757  0.07488135     0.11900
H2029       H  0.84080943  0.81640842  0.04899982     0.11800
H2030       H  0.86388275  0.76475995  0.04436695     0.11500
H2031       H  0.89436991  0.75006133  0.03825901     0.12100
H2032       H  0.90608977  0.87670450  0.06614931     0.14000
C2033       C  0.76700331  0.84804524  0.11920043    -0.06000
C2034       C  0.75737521  0.87195142  0.14259246    -0.05900
C2035       C  0.74788651  0.85307185  0.16894718    -0.24100
C2036       C  0.74784885  0.80980533  0.17270519     0.18100
C2037       C  0.75788886  0.78540140  0.15014230     0.15400
C2038       C  0.76735444  0.80461304  0.12348782    -0.19100
C2039       C  0.75812669  0.74214398  0.15444313    -0.20900
C2040       C  0.74862577  0.72335016  0.18089110    -0.13500
C2041       C  0.73837968  0.74727085  0.20303064     0.03200
C2042       C  0.73795971  0.79056259  0.19865643    -0.25600
H2043       H  0.75676119  0.90540752  0.13995582     0.08300
H2044       H  0.74038754  0.87234293  0.18612576     0.11900
H2045       H  0.77458709  0.78567738  0.10557463     0.11800
H2046       H  0.76574268  0.72285311  0.13749901     0.11500
H2047       H  0.74916476  0.68991840  0.18391583     0.12100
H2048       H  0.73029077  0.80927613  0.21598196     0.14000
C2049       C  0.74172972  0.65608461  0.99244280    -0.06000
C2050       C  0.75777628  0.66232890  0.97724539    -0.05900
C2051       C  0.76467182  0.70218378  0.97474690    -0.24100
C2052       C  0.75562693  0.73639530  0.98740610     0.18100
C2053       C  0.73985167  0.73039589  0.00416724     0.15400
C2054       C  0.73309281  0.69020128  0.00695641    -0.19100
C2055       C  0.73098609  0.76480944  0.01721212    -0.20900
C2056       C  0.73806594  0.80469545  0.01489862    -0.13500
C2057       C  0.75393822  0.81072773  0.99890033     0.03200
C2058       C  0.76231198  0.77643547  0.98412182    -0.25600
H2059       H  0.76457735  0.63674995  0.96551202     0.08300
H2060       H  0.77688554  0.70637778  0.96210346     0.11900
H2061       H  0.72062309  0.68593806  0.01852258     0.11800
H2062       H  0.71882320  0.76071942  0.03006666     0.11500
H2063       H  0.73151581  0.83042413  0.02698254     0.12100
H2064       H  0.77464291  0.78040358  0.97186723     0.14000
C2065       C  0.95628515  0.04974187  0.63318555    -0.06000
C2066       C  0.94044757  0.06298538  0.62064458    -0.05900
C2067       C  0.93904339  0.09993034  0.60191694    -0.24100
C2068       C  0.95342556  0.12470893  0.59569763     0.18100
C2069       C  0.96948932  0.11151838  0.60764157     0.15400
C2070       C  0.97085487  0.07390466  0.62604681    -0.19100
C2071       C  0.98382491  0.13662734  0.60153940    -0.20900
C2072       C  0.98223189  0.17453588  0.58403929    -0.13500
C2073       C  0.96627877  0.18809330  0.57229398     0.03200
C2074       C  0.95193249  0.16271360  0.57811683    -0.25600
H2075       H  0.92904277  0.04496211  0.62571881     0.08300
H2076       H  0.92664392  0.10949569  0.59284351     0.11900
H2077       H  0.98311722  0.06424769  0.63583276     0.11800
H2078       H  0.99624823  0.12708545  0.61048172     0.11500
H2079       H  0.99351156  0.19329665  0.57976019     0.12100
H2080       H  0.93955697  0.17251669  0.56904312     0.14000
C2081       C  0.98786030  0.02096830  0.76307468    -0.06000
C2082       C  0.00330482  0.00506147  0.77566405    -0.05900
C2083       C  0.01317361  0.02764208  0.79916205    -0.24100
C2084       C  0.00793035  0.06690949  0.81046485     0.18100
C2085       C  0.99269284  0.08387879  0.79737820     0.15400
C2086       C  0.98268779  0.06073100  0.77396727    -0.19100
C2087       C  0.98761015  0.12343729  0.80841340    -0.20900
C2088       C  0.99710431  0.14514641  0.83318214    -0.13500
C2089       C  0.01187239  0.12775848  0.84762718     0.03200
C2090       C  0.01740653  0.08887681  0.83540282    -0.25600
H2091       H  0.00769187  0.97469346  0.76768368     0.08300
H2092       H  0.02484965  0.01415404  0.80876013     0.11900
H2093       H  0.97092721  0.07365707  0.76423993     0.11800
H2094       H  0.97603124  0.13716074  0.79857424     0.11500
H2095       H  0.99240148  0.17478935  0.84222782     0.12100
H2096       H  0.02871262  0.07490290  0.84629437     0.14000
C2097       C  0.93357500  0.90005097  0.80184450    -0.06000
C2098       C  0.93274809  0.93124520  0.82726251    -0.05900
C2099       C  0.93153967  0.92097508  0.86233447    -0.24100
C2100       C  0.93139471  0.87927324  0.87276643     0.18100
C2101       C  0.93153602  0.84757204  0.84745593     0.15400
C2102       C  0.93237672  0.85815205  0.81213494    -0.19100
C2103       C  0.93177366  0.80586191  0.85799556    -0.20900
C2104       C  0.93292971  0.79575162  0.89313884    -0.13500
C2105       C  0.93352164  0.82712308  0.91842732     0.03200
C2106       C  0.93208735  0.86883987  0.90805498    -0.25600
H2107       H  0.93353628  0.96373909  0.82009687     0.08300
H2108       H  0.93139187  0.94568860  0.88136704     0.11900
H2109       H  0.93307233  0.83375296  0.79285725     0.11800
H2110       H  0.93181074  0.78109932  0.83900878     0.11500
H2111       H  0.93393394  0.76336930  0.90047131     0.12100
H2112       H  0.93266453  0.89334831  0.92726287     0.14000
C2113       C  0.97502950  0.85702977  0.60231687    -0.06000
C2114       C  0.96643159  0.82149117  0.59041185    -0.05900
C2115       C  0.97358728  0.79631153  0.56467084    -0.24100
C2116       C  0.98971524  0.80551531  0.55084533     0.18100
C2117       C  0.99853118  0.84112947  0.56250372     0.15400
C2118       C  0.99104318  0.86696057  0.58777944    -0.19100
C2119       C  0.01484875  0.84965965  0.54925754    -0.20900
C2120       C  0.02237013  0.82317733  0.52481027    -0.13500
C2121       C  0.01371800  0.78767045  0.51285368     0.03200
C2122       C  0.99728160  0.77927874  0.52604598    -0.25600
H2123       H  0.95422870  0.81286841  0.60138932     0.08300
H2124       H  0.96664964  0.76903238  0.55612825     0.11900
H2125       H  0.99802678  0.89372431  0.59728180     0.11800
H2126       H  0.02187409  0.87670027  0.55802127     0.11500
H2127       H  0.03498654  0.83052327  0.51525425     0.12100
H2128       H  0.99039270  0.75200306  0.51730854     0.14000
C2129       C  0.00598327  0.67353518  0.74552757    -0.06000
C2130       C  0.99109904  0.68159907  0.76439772    -0.05900
C2131       C  0.98407073  0.72134652  0.76429987    -0.24100
C2132       C  0.99191160  0.75352916  0.74551117     0.18100
C2133       C  0.00670996  0.74553644  0.72597430     0.15400
C2134       C  0.01348934  0.70555149  0.72572300    -0.19100
C2135       C  0.01455258  0.77772142  0.70718803    -0.20900
C2136       C  0.00724292  0.81714181  0.70628322    -0.13500
C2137       C  0.99210561  0.82486532  0.72442685     0.03200
C2138       C  0.98491684  0.79329344  0.74515377    -0.25600
H2139       H  0.98529616  0.65768827  0.78032636     0.08300
H2140       H  0.97267154  0.72708971  0.77934771     0.11900
H2141       H  0.02507783  0.69990127  0.71122091     0.11800
H2142       H  0.02600516  0.77203931  0.69229219     0.11500
H2143       H  0.01289145  0.84080211  0.68986939     0.12100
H2144       H  0.97323130  0.79885734  0.75935716     0.14000
C2145       C  0.78888018  0.54327512  0.58664961    -0.06000
C2146       C  0.80458178  0.55457263  0.60122469    -0.05900
C2147       C  0.80684911  0.59339092  0.61637049    -0.24100
C2148       C  0.79345533  0.62177040  0.61719067     0.18100
C2149       C  0.77759567  0.61107127  0.60241246     0.15400
C2150       C  0.77537146  0.57171318  0.58725967    -0.19100
C2151       C  0.76424360  0.63978669  0.60349832    -0.20900
C2152       C  0.76632976  0.67766251  0.62075065    -0.13500
C2153       C  0.78188771  0.68768870  0.63661709     0.03200
C2154       C  0.79556614  0.66013251  0.63362700    -0.25600
H2155       H  0.81522158  0.53332281  0.60070304     0.08300
H2156       H  0.81907151  0.60113895  0.62756432     0.11900
H2157       H  0.76333909  0.56357467  0.57539675     0.11800
H2158       H  0.75205094  0.63241348  0.59202331     0.11500
H2159       H  0.75560881  0.69854838  0.62262056     0.12100
H2160       H  0.80760306  0.66740686  0.64585961     0.14000
C2161       C  0.76571898  0.88294423  0.62085758    -0.06000
C2162       C  0.77438488  0.91931544  0.61073972    -0.05900
C2163       C  0.76744396  0.94620834  0.58603941    -0.24100
C2164       C  0.75149758  0.93777521  0.57136293     0.18100
C2165       C  0.74262246  0.90136571  0.58134448     0.15400
C2166       C  0.74986074  0.87395735  0.60564406    -0.19100
C2167       C  0.72651540  0.89338038  0.56729853    -0.20900
C2168       C  0.71927531  0.92106132  0.54362176    -0.13500
C2169       C  0.72799905  0.95726497  0.53313288     0.03200
C2170       C  0.74421022  0.96530482  0.54717798    -0.25600
H2171       H  0.78652813  0.92718422  0.62220353     0.08300
H2172       H  0.77443544  0.97398978  0.57884547     0.11900
H2173       H  0.74286604  0.84647092  0.61364762     0.11800
H2174       H  0.71947214  0.86575316  0.57470536     0.11500
H2175       H  0.70684497  0.91380900  0.53320470     0.12100
H2176       H  0.75111632  0.99303369  0.53946672     0.14000
C2177       C  0.74255613  0.05734147  0.76085384    -0.06000
C2178       C  0.75865571  0.05100475  0.77541599    -0.05900
C2179       C  0.76560598  0.01112390  0.77625978    -0.24100
C2180       C  0.75636653  0.97720307  0.76315797     0.18100
C2181       C  0.74023866  0.98356508  0.74830326     0.15400
C2182       C  0.73367969  0.02350339  0.74649656    -0.19100
C2183       C  0.73081840  0.94987201  0.73560510    -0.20900
C2184       C  0.73783233  0.91028887  0.73544143    -0.13500
C2185       C  0.75433300  0.90403943  0.74801477     0.03200
C2186       C  0.76318404  0.93725396  0.76352458    -0.25600
H2187       H  0.76556389  0.07648506  0.78717273     0.08300
H2188       H  0.77803471  0.00667864  0.78770082     0.11900
H2189       H  0.72115950  0.02773434  0.73535488     0.11800
H2190       H  0.71830011  0.95440416  0.72458320     0.11500
H2191       H  0.73082572  0.88524702  0.72326957     0.12100
H2192       H  0.77593650  0.93277127  0.77343401     0.14000
C2193       C  0.81448592  0.81961237  0.80668148    -0.06000
C2194       C  0.81494324  0.78689771  0.83082609    -0.05900
C2195       C  0.81617245  0.79516498  0.86623722    -0.24100
C2196       C  0.81672440  0.83628975  0.87808395     0.18100
C2197       C  0.81699897  0.86927537  0.85387067     0.15400
C2198       C  0.81611203  0.86072192  0.81839690    -0.19100
C2199       C  0.81724082  0.91040641  0.86554195    -0.20900
C2200       C  0.81634477  0.91888674  0.90086052    -0.13500
C2201       C  0.81531655  0.88639316  0.92519685     0.03200
C2202       C  0.81608243  0.84504981  0.91364916    -0.25600
H2203       H  0.81371066  0.75493332  0.82244186     0.08300
H2204       H  0.81599664  0.76946865  0.88439457     0.11900
H2205       H  0.81564855  0.88626959  0.80009512     0.11800
H2206       H  0.81746207  0.93604624  0.84732295     0.11500
H2207       H  0.81579484  0.95103560  0.90901998     0.12100
H2208       H  0.81519907  0.81973221  0.93212282     0.14000
C2209       C  0.84284578  0.82894034  0.67376883    -0.06000
C2210       C  0.85554071  0.79869473  0.67035930    -0.05900
C2211       C  0.87268573  0.81029307  0.66752625    -0.24100
C2212       C  0.87751839  0.85233745  0.66918539     0.18100
C2213       C  0.86487345  0.88311197  0.67219795     0.15400
C2214       C  0.84762524  0.87128169  0.67368062    -0.19100
C2215       C  0.86975177  0.92499269  0.67552176    -0.20900
C2216       C  0.88698902  0.93610233  0.67729075    -0.13500
C2217       C  0.89969216  0.90573012  0.67470686     0.03200
C2218       C  0.89479508  0.86392422  0.66970031    -0.25600
H2219       H  0.85222650  0.76600023  0.67071625     0.08300
H2220       H  0.88222775  0.78624792  0.66542793     0.11900
H2221       H  0.83800831  0.89496108  0.67711215     0.11800
H2222       H  0.86022452  0.94901179  0.67806837     0.11500
H2223       H  0.89039224  0.96836048  0.68139232     0.12100
H2224       H  0.90442895  0.83999125  0.66836701     0.14000
C2225       C  0.76190070  0.70241434  0.77550765    -0.06000
C2226       C  0.77009134  0.66497611  0.78393685    -0.05900
C2227       C  0.76336376  0.63820561  0.80905882    -0.24100
C2228       C  0.74832340  0.64831341  0.82660120     0.18100
C2229       C  0.73997948  0.68595491  0.81876365     0.15400
C2230       C  0.74675032  0.71266673  0.79313717    -0.19100
C2231       C  0.72513069  0.69636052  0.83702663    -0.20900
C2232       C  0.71877263  0.67004735  0.86302356    -0.13500
C2233       C  0.72694419  0.63243188  0.87090302     0.03200
C2234       C  0.74167538  0.62166919  0.85224420    -0.25600
H2235       H  0.78177174  0.65621526  0.77100761     0.08300
H2236       H  0.76999817  0.60963500  0.81489102     0.11900
H2237       H  0.74033504  0.74152049  0.78721402     0.11800
H2238       H  0.71856978  0.72512905  0.83156112     0.11500
H2239       H  0.70750002  0.67928355  0.87717683     0.12100
H2240       H  0.74830971  0.59319312  0.85845665     0.14000
loop_ 
_geom_bond_atom_site_label_1 
_geom_bond_atom_site_label_2 
_geom_bond_distance 
_geom_bond_site_symmetry_2 
_ccdc_geom_bond_type 
O1           C16   1.267       .  A
O1           Al9   1.923       .  S
C2           O12   1.266       .  A
C2            O3   1.260       .  A
C2         C2193   1.476       .  S
O3           Al5   1.885       .  S
O4            C6   1.267       .  A
O4           Al5   1.935       .  S
Al5          O13   1.947       .  S
Al5          O15   1.891       .  S
Al5          O14   1.777       .  S
C6           O19   1.263       .  A
C6         C2225   1.491       .  S
O7           C17   1.262       .  A
O7           Al9   1.915       .  S
O8           C21   1.269       .  A
O8          Al18   1.935       .  S
Al9          O22   1.905       .  S
Al9          O19   1.912       .  S
Al9          O14   1.785       .  S
O10          C17   1.252       .  A
O10         Al18   1.866       .  S
O11          C20   1.258       .  A
O11         Al18   1.886       .  S
O12         Al18   1.923       .  S
O13          C20   1.268       .  A
O14         Al18   1.772       .  S
O15          C16   1.266       .  A
C16        C2153   1.476       .  S
C17        C2185   1.466       .  S
C20        C2209   1.487       .  S
C21          O22   1.266       .  A
C21        C2161   1.489       .  S
O23          C38   1.270   1_565  A
O23         Al31   1.943       .  S
C24          O34   1.267       .  A
C24          O25   1.261       .  A
C24        C2097   1.484       .  S
O25         Al27   1.889       .  S
O26          C28   1.269   1_545  A
O26         Al27   1.954   1_545  S
Al27         O35   1.953       .  S
Al27         O37   1.888       .  S
Al27         O36   1.778       .  S
C28          O41   1.260       .  A
C28        C2081   1.491   1_565  S
O29          C39   1.265       .  A
O29         Al31   1.936       .  S
O30          C43   1.270       .  A
O30         Al40   1.947       .  S
Al31         O44   1.900       .  S
Al31         O41   1.891       .  S
Al31         O36   1.785       .  S
O32          C39   1.253       .  A
O32         Al40   1.861       .  S
O33          C42   1.259       .  A
O33         Al40   1.886       .  S
O34         Al40   1.937       .  S
O35          C42   1.270       .  A
O36         Al40   1.773       .  S
O37          C38   1.263   1_565  A
C38        C2065   1.482       .  S
C39        C2137   1.471       .  S
C42        C2217   1.488       .  S
C43          O44   1.264       .  A
C43        C2113   1.490       .  S
O45          C60   1.268       .  A
O45         Al53   1.936       .  S
C46          O56   1.267       .  A
C46          O47   1.258       .  A
C46        C2201   1.477       .  S
O47         Al49   1.871   1_556  S
O48          C50   1.271       .  A
O48         Al49   1.940   1_556  S
Al49         O57   1.934       .  S
Al49         O59   1.885       .  S
Al49         O58   1.768       .  S
C50          O63   1.266       .  A
C50        C2009   1.489   1_565  S
O51          C61   1.265       .  A
O51         Al53   1.949       .  S
O52          C65   1.274       .  A
O52         Al62   1.959       .  S
Al53         O66   1.885       .  S
Al53         O63   1.907   1_554  S
Al53         O58   1.784       .  S
O54          C61   1.250   1_556  A
O54         Al62   1.864   1_556  S
O55          C64   1.258       .  A
O55         Al62   1.888       .  S
O56         Al62   1.932   1_556  S
O57          C64   1.267       .  A
O58         Al62   1.771       .  S
O59          C60   1.261       .  A
C60        C1985   1.476   1_565  S
C61        C2057   1.476   1_554  S
C64        C2017   1.480       .  S
C65          O66   1.264       .  A
C65        C2033   1.487       .  S
O67          C82   1.269       .  A
O67         Al75   1.943       .  S
C68          O78   1.266       .  A
C68          O69   1.259       .  A
C68        C2105   1.481       .  S
O69         Al71   1.887   1_556  S
O70          C72   1.269       .  A
O70         Al71   1.955   1_556  S
Al71         O79   1.960       .  S
Al71         O81   1.880       .  S
Al71         O80   1.780       .  S
C72          O85   1.258       .  A
C72        C1969   1.481       .  S
O73          C83   1.265   1_554  A
O73         Al75   1.921       .  S
O74          C87   1.266       .  A
O74         Al84   1.930       .  S
Al75         O88   1.904       .  S
Al75         O85   1.888   1_554  S
Al75         O80   1.780       .  S
O76          C83   1.256       .  A
O76         Al84   1.873   1_556  S
O77          C86   1.257       .  A
O77         Al84   1.874       .  S
O78         Al84   1.933   1_556  S
O79          C86   1.271       .  A
O80         Al84   1.772       .  S
O81          C82   1.261       .  A
C82        C1921   1.483       .  S
C83        C1953   1.469       .  S
C86        C2025   1.487       .  S
C87          O88   1.265       .  A
C87        C1945   1.485       .  S
O89         C104   1.261       .  A
O89         Al97   1.879       .  S
C90         O100   1.258       .  A
C90          O91   1.269       .  A
C90        C1873   1.479       .  S
O91         Al93   1.944       .  S
O92          C94   1.251       .  A
O92         Al93   1.860       .  S
Al93        O101   1.867       .  S
Al93        O103   1.971       .  S
Al93        O102   1.765       .  S
C94         O107   1.266       .  A
C94        C2129   1.471       .  S
O95         C105   1.262       .  A
O95         Al97   1.879       .  S
O96         C109   1.260       .  A
O96        Al106   1.884       .  S
Al97        O110   1.929       .  S
Al97        O107   1.947       .  S
Al97        O102   1.772       .  S
O98         C105   1.275       .  A
O98        Al106   1.970       .  S
O99         C108   1.271       .  A
O99        Al106   1.957       .  S
O100       Al106   1.869       .  S
O101        C108   1.256       .  A
O102       Al106   1.771       .  S
O103        C104   1.275       .  A
C104       C1977   1.488       .  S
C105       C1905   1.485       .  S
C108       C1889   1.480       .  S
C109        O110   1.267       .  A
C109       C1857   1.471       .  S
O111        C126   1.267       .  A
O111       Al119   1.905       .  S
C112        O122   1.257       .  A
C112        O113   1.266       .  A
C112       C1793   1.479       .  S
O113       Al115   1.936       .  S
O114        C116   1.253       .  A
O114       Al115   1.862       .  S
Al115       O123   1.872       .  S
Al115       O125   1.939       .  S
Al115       O124   1.768       .  S
C116        O129   1.262       .  A
C116       C1809   1.463       .  S
O117        C127   1.259       .  A
O117       Al119   1.888       .  S
O118        C131   1.263       .  A
O118       Al128   1.887       .  S
Al119       O132   1.932       .  S
Al119       O129   1.918       .  S
Al119       O124   1.780       .  S
O120        C127   1.270       .  A
O120       Al128   1.950       .  S
O121        C130   1.270       .  A
O121       Al128   1.952       .  S
O122       Al128   1.874       .  S
O123        C130   1.256       .  A
O124       Al128   1.778       .  S
O125        C126   1.270       .  A
C126       C1825   1.488       .  S
C127       C1841   1.482       .  S
C130       C1897   1.481       .  S
C131        O132   1.268       .  A
C131       C1777   1.481       .  S
O133        C148   1.262       .  A
O133       Al141   1.890       .  S
C134        O144   1.258       .  A
C134        O135   1.269       .  A
C134       C1881   1.477       .  S
O135       Al137   1.939       .  S
O136        C138   1.251       .  A
O136       Al137   1.857       .  S
Al137       O145   1.881       .  S
Al137       O147   1.959       .  S
Al137       O146   1.764       .  S
C138        O151   1.270       .  A
C138       C1761   1.479       .  S
O139        C149   1.262       .  A
O139       Al141   1.894       .  S
O140        C153   1.261       .  A
O140       Al150   1.884       .  S
Al141       O154   1.951       .  S
Al141       O151   1.967       .  S
Al141       O146   1.776       .  S
O142        C149   1.274       .  A
O142       Al150   1.966       .  S
O143        C152   1.273       .  A
O143       Al150   1.965       .  S
O144       Al150   1.874       .  S
O145        C152   1.259       .  A
O146       Al150   1.771       .  S
O147        C148   1.272       .  A
C148       C1753   1.490       .  S
C149       C2121   1.496       .  S
C152       C1729   1.488       .  S
C153        O154   1.273       .  A
C153       C1713   1.477       .  S
O155        C170   1.261       .  A
O155       Al163   1.879       .  S
C156        O166   1.259       .  A
C156        O157   1.268       .  A
C156       C1801   1.478       .  S
O157       Al159   1.935       .  S
O158        C160   1.249       .  A
O158       Al159   1.866       .  S
Al159       O167   1.871       .  S
Al159       O169   1.957       .  S
Al159       O168   1.765       .  S
C160        O173   1.266       .  A
C160       C1705   1.462       .  S
O161        C171   1.266       .  A
O161       Al163   1.904       .  S
O162        C175   1.267       .  A
O162       Al172   1.896       .  S
Al163       O176   1.921       .  S
Al163       O173   1.952       .  S
Al163       O168   1.776       .  S
O164        C171   1.272       .  A
O164       Al172   1.950       .  S
O165        C174   1.272       .  A
O165       Al172   1.974       .  S
O166       Al172   1.876       .  S
O167        C174   1.255       .  A
O168       Al172   1.776       .  S
O169        C170   1.272       .  A
C170       C1681   1.487       .  S
C171       C1673   1.491       .  S
C174       C1737   1.490       .  S
C175        O176   1.268       .  A
C175       C1649   1.474       .  S
O177        C192   1.266       .  A
O177       Al185   1.913       .  S
C178        O188   1.262       .  A
C178        O179   1.262       .  A
C178       C1609   1.477       .  S
O179       Al181   1.915       .  S
O180        C182   1.254       .  A
O180       Al181   1.855       .  S
Al181       O189   1.871       .  S
Al181       O191   1.916       .  S
Al181       O190   1.765       .  S
C182        O195   1.268       .  A
C182       C2177   1.469       .  S
O183        C193   1.259       .  A
O183       Al185   1.892       .  S
O184        C197   1.258       .  A
O184       Al194   1.869       .  S
Al185       O198   1.953       .  S
Al185       O195   1.944       .  S
Al185       O190   1.784       .  S
O186        C193   1.269       .  A
O186       Al194   1.958       .  S
O187        C196   1.272       .  A
O187       Al194   1.957       .  S
O188       Al194   1.902       .  S
O189        C196   1.258       .  A
O190       Al194   1.775       .  S
O191        C192   1.263       .  A
C192       C2001   1.480       .  S
C193       C1633   1.486       .  S
C196       C1625   1.472       .  S
C197        O198   1.272       .  A
C197       C1593   1.472       .  S
O199        C214   1.266       .  A
O199       Al207   1.922       .  S
C200        O210   1.263       .  A
C200        O201   1.264       .  A
C200       C1561   1.479       .  S
O201       Al203   1.922       .  S
O202        C204   1.255       .  A
O202       Al203   1.852       .  S
Al203       O211   1.881       .  S
Al203       O213   1.917       .  S
Al203       O212   1.772       .  S
C204        O217   1.270       .  A
C204       C1521   1.471       .  S
O205        C215   1.260   1_545  A
O205       Al207   1.905       .  S
O206        C219   1.260       .  A
O206       Al216   1.867   1_565  S
Al207       O220   1.958   1_545  S
Al207       O217   1.946       .  S
Al207       O212   1.784       .  S
O208        C215   1.266       .  A
O208       Al216   1.952   1_565  S
O209        C218   1.270       .  A
O209       Al216   1.948       .  S
O210       Al216   1.903       .  S
O211        C218   1.260       .  A
O212       Al216   1.782       .  S
O213        C214   1.262       .  A
C214       C1537   1.492       .  S
C215       C1569   1.497       .  S
C218       C1617   1.477       .  S
C219        O220   1.275       .  A
C219       C1513   1.480       .  S
O221        C236   1.261       .  A
O221       Al229   1.897       .  S
C222        O232   1.264       .  A
C222        O223   1.264       .  A
C222       C1601   1.475       .  S
O223       Al225   1.919       .  S
O224        C226   1.253       .  A
O224       Al225   1.856       .  S
Al225       O233   1.888       .  S
Al225       O235   1.925       .  S
Al225       O234   1.776       .  S
C226        O239   1.269       .  A
C226       C1497   1.476       .  S
O227        C237   1.262   1_545  A
O227       Al229   1.911       .  S
O228        C241   1.264       .  A
O228       Al238   1.884   1_565  S
Al229       O242   1.945   1_545  S
Al229       O239   1.951       .  S
Al229       O234   1.782       .  S
O230        C237   1.265       .  A
O230       Al238   1.933   1_565  S
O231        C240   1.267       .  A
O231       Al238   1.939       .  S
O232       Al238   1.896       .  S
O233        C240   1.259       .  A
O234       Al238   1.776       .  S
O235        C236   1.265       .  A
C236       C1473   1.486       .  S
C237       C2169   1.493       .  S
C240       C1457   1.476       .  S
C241        O242   1.273       .  A
C241       C1441   1.483       .  S
O243        C258   1.262       .  A
O243       Al251   1.897       .  S
C244        O254   1.264       .  A
C244        O245   1.266       .  A
C244       C1553   1.480       .  S
O245       Al247   1.926       .  S
O246        C248   1.253       .  A
O246       Al247   1.857       .  S
Al247       O255   1.885       .  S
Al247       O257   1.942       .  S
Al247       O256   1.775       .  S
C248        O261   1.265       .  A
C248       C1425   1.463       .  S
O249        C259   1.260       .  A
O249       Al251   1.895       .  S
O250        C263   1.266       .  A
O250       Al260   1.893       .  S
Al251       O264   1.920       .  S
Al251       O261   1.921       .  S
Al251       O256   1.773       .  S
O252        C259   1.267       .  A
O252       Al260   1.953       .  S
O253        C262   1.270       .  A
O253       Al260   1.949       .  S
O254       Al260   1.899       .  S
O255        C262   1.260       .  A
O256       Al260   1.779       .  S
O257        C258   1.267       .  A
C258       C1417   1.492       .  S
C259       C1393   1.487       .  S
C262       C1465   1.483       .  S
C263        O264   1.268       .  A
C263       C1377   1.476       .  S
O265        C280   1.264       .  A
O265       Al273   1.889       .  S
C266        O276   1.260       .  A
C266        O267   1.267       .  A
C266       C1313   1.482       .  S
O267       Al269   1.939       .  S
O268        C270   1.250       .  A
O268       Al269   1.854       .  S
Al269       O277   1.878       .  S
Al269       O279   1.964       .  S
Al269       O278   1.769       .  S
C270        O283   1.263       .  A
C270       C1361   1.465       .  S
O271        C281   1.260       .  A
O271       Al273   1.888       .  S
O272        C285   1.265       .  A
O272       Al282   1.898       .  S
Al273       O286   1.929       .  S
Al273       O283   1.935       .  S
Al273       O278   1.779       .  S
O274        C281   1.272       .  A
O274       Al282   1.958       .  S
O275        C284   1.271       .  A
O275       Al282   1.955       .  S
O276       Al282   1.884       .  S
O277        C284   1.258       .  A
O278       Al282   1.775       .  S
O279        C280   1.274       .  A
C280       C1345   1.493       .  S
C281       C2041   1.480       .  S
C284       C1329   1.484       .  S
C285        O286   1.267       .  A
C285       C1449   1.483       .  S
O287        C302   1.264       .  A
O287       Al295   1.918       .  S
C288        O298   1.264       .  A
C288        O289   1.265       .  A
C288       C1297   1.485       .  S
O289       Al291   1.928       .  S
O290        C292   1.254       .  A
O290       Al291   1.841       .  S
Al291       O299   1.883       .  S
Al291       O301   1.921       .  S
Al291       O300   1.775       .  S
C292        O305   1.265       .  A
C292       C1257   1.461       .  S
O293        C303   1.259       .  A
O293       Al295   1.905       .  S
O294        C307   1.262       .  A
O294       Al304   1.874       .  S
Al295       O308   1.934       .  S
Al295       O305   1.926       .  S
Al295       O300   1.787       .  S
O296        C303   1.267       .  A
O296       Al304   1.960       .  S
O297        C306   1.272       .  A
O297       Al304   1.961       .  S
O298       Al304   1.905       .  S
O299        C306   1.259       .  A
O300       Al304   1.783       .  S
O301        C302   1.262       .  A
C302       C1265   1.491       .  S
C303       C1289   1.501       .  S
C306       C1337   1.484       .  S
C307        O308   1.271       .  A
C307       C1385   1.475       .  S
O309        C324   1.266       .  A
O309       Al317   1.902       .  S
C310        O320   1.260       .  A
C310        O311   1.266       .  A
C310       C1321   1.487       .  S
O311       Al313   1.932   1_554  S
O312        C314   1.253       .  A
O312       Al313   1.874       .  S
Al313       O321   1.872       .  S
Al313       O323   1.937       .  S
Al313       O322   1.775       .  S
C314        O327   1.263       .  A
C314       C2049   1.473       .  S
O315        C325   1.266       .  A
O315       Al317   1.914       .  S
O316        C329   1.265       .  A
O316       Al326   1.899       .  S
Al317       O330   1.920       .  S
Al317       O327   1.924       .  S
Al317       O322   1.781       .  S
O318        C325   1.266       .  A
O318       Al326   1.924       .  S
O319        C328   1.267       .  A
O319       Al326   1.938       .  S
O320       Al326   1.893   1_554  S
O321        C328   1.255       .  A
O322       Al326   1.780       .  S
O323        C324   1.269       .  A
C324       C2233   1.487       .  S
C325       C1233   1.485   1_556  S
C328       C1217   1.478       .  S
C329        O330   1.266       .  A
C329       C1585   1.477       .  S
O331        C346   1.264       .  A
O331       Al339   1.915       .  S
C332        O342   1.265       .  A
C332        O333   1.264   1_554  A
C332       C1305   1.484       .  S
O333       Al335   1.917       .  S
O334        C336   1.255       .  A
O334       Al335   1.865       .  S
Al335       O343   1.880       .  S
Al335       O345   1.905       .  S
Al335       O344   1.778       .  S
C336        O349   1.266       .  A
C336       C1185   1.469       .  S
O337        C347   1.264   1_556  A
O337       Al339   1.925       .  S
O338        C351   1.271       .  A
O338       Al348   1.910       .  S
Al339       O352   1.916       .  S
Al339       O349   1.919       .  S
Al339       O344   1.780       .  S
O340        C347   1.260   1_556  A
O340       Al348   1.909       .  S
O341        C350   1.267       .  A
O341       Al348   1.941       .  S
O342       Al348   1.919   1_554  S
O343        C350   1.256       .  A
O344       Al348   1.784       .  S
O345        C346   1.261       .  A
C346       C1209   1.486       .  S
C347       C1177   1.491       .  S
C350       C1225   1.475       .  S
C351        O352   1.269       .  A
C351       C1505   1.483       .  S
O353        C368   1.269       .  A
O353       Al361   1.940       .  S
C354        O364   1.268       .  A
C354        O355   1.257       .  A
C354       C1137   1.479       .  S
O355       Al357   1.871       .  S
O356        C358   1.269       .  A
O356       Al357   1.945       .  S
Al357       O365   1.945       .  S
Al357       O367   1.879       .  S
Al357       O366   1.779       .  S
C358        O371   1.260       .  A
C358       C1689   1.482       .  S
O359        C369   1.263       .  A
O359       Al361   1.919       .  S
O360        C373   1.271       .  A
O360       Al370   1.948       .  S
Al361       O374   1.900       .  S
Al361       O371   1.892       .  S
Al361       O366   1.781       .  S
O362        C369   1.253       .  A
O362       Al370   1.867       .  S
O363        C372   1.257       .  A
O363       Al370   1.876       .  S
O364       Al370   1.941       .  S
O365        C372   1.268       .  A
O366       Al370   1.772       .  S
O367        C368   1.261       .  A
C368       C1097   1.480       .  S
C369       C1113   1.466       .  S
C372       C1153   1.480       .  S
C373        O374   1.266       .  A
C373       C1129   1.487       .  S
O375        C390   1.269   1_565  A
O375       Al383   1.924       .  S
C376        O386   1.264       .  A
C376        O377   1.263       .  A
C376       C1073   1.484       .  S
O377       Al379   1.911       .  S
O378        C380   1.265       .  A
O378       Al379   1.936       .  S
Al379       O387   1.949       .  S
Al379       O389   1.894       .  S
Al379       O388   1.781       .  S
C380        O393   1.260       .  A
C380       C1409   1.487       .  S
O381        C391   1.263       .  A
O381       Al383   1.914       .  S
O382        C395   1.263       .  A
O382       Al392   1.917       .  S
Al383       O396   1.918       .  S
Al383       O393   1.905       .  S
Al383       O388   1.782       .  S
O384        C391   1.254       .  A
O384       Al392   1.859       .  S
O385        C394   1.258       .  A
O385       Al392   1.879       .  S
O386       Al392   1.919       .  S
O387        C394   1.270       .  A
O388       Al392   1.773       .  S
O389        C390   1.266   1_565  A
C390       C1065   1.480       .  S
C391       C1249   1.460       .  S
C394       C1161   1.478       .  S
C395        O396   1.266       .  A
C395       C1169   1.490       .  S
O397        C412   1.271       .  A
O397       Al405   1.946   1_545  S
C398        O408   1.270       .  A
C398        O399   1.259       .  A
C398       C1145   1.477       .  S
O399       Al401   1.870       .  S
O400        C402   1.271       .  A
O400       Al401   1.951   1_545  S
Al401       O409   1.948       .  S
Al401       O411   1.868   1_565  S
Al401       O410   1.768       .  S
C402        O415   1.265   1_545  A
C402       C1025   1.494       .  S
O403        C413   1.268       .  A
O403       Al405   1.961       .  S
O404        C417   1.273       .  A
O404       Al414   1.966       .  S
Al405       O418   1.878       .  S
Al405       O415   1.909       .  S
Al405       O410   1.778       .  S
O406        C413   1.249       .  A
O406       Al414   1.856       .  S
O407        C416   1.259       .  A
O407       Al414   1.885       .  S
O408       Al414   1.943       .  S
O409        C416   1.269       .  A
O410       Al414   1.767       .  S
O411        C412   1.260       .  A
C412       C1017   1.472       .  S
C413       C1697   1.463       .  S
C416       C1041   1.483       .  S
C417        O418   1.260       .  A
C417       C1849   1.489       .  S
O419        C434   1.272       .  A
O419       Al427   1.934       .  S
C420        O430   1.267       .  A
C420        O421   1.264       .  A
C420       C1081   1.485       .  S
O421       Al423   1.905       .  S
O422        C424   1.265       .  A
O422       Al423   1.931       .  S
Al423       O431   1.943       .  S
Al423       O433   1.884       .  S
Al423       O432   1.775       .  S
C424        O437   1.263       .  A
C424       C1273   1.499       .  S
O425        C435   1.268       .  A
O425       Al427   1.949       .  S
O426        C439   1.267       .  A
O426       Al436   1.949       .  S
Al427       O440   1.907       .  S
Al427       O437   1.922       .  S
Al427       O432   1.786       .  S
O428        C435   1.250       .  A
O428       Al436   1.833       .  S
O429        C438   1.261       .  A
O429       Al436   1.892       .  S
O430       Al436   1.933       .  S
O431        C438   1.269       .  A
O432       Al436   1.772       .  S
O433        C434   1.265       .  A
C434       C1001   1.475       .  S
C435       C1433   1.468       .  S
C438       C1049   1.480       .  S
C439        O440   1.263       .  A
C439       C1577   1.501       .  S
O441        C456   1.266       .  A
O441       Al449   1.923       .  S
C442        O452   1.265       .  A
C442        O443   1.258       .  A
C442        C969   1.480       .  S
O443       Al445   1.885       .  S
O444        C446   1.271       .  A
O444       Al445   1.951       .  S
Al445       O453   1.966       .  S
Al445       O455   1.889       .  S
Al445       O454   1.778       .  S
C446        O459   1.260       .  A
C446       C1481   1.482       .  S
O447        C457   1.264       .  A
O447       Al449   1.925       .  S
O448        C461   1.267       .  A
O448       Al458   1.931       .  S
Al449       O462   1.907       .  S
Al449       O459   1.883       .  S
Al449       O454   1.780       .  S
O450        C457   1.254       .  A
O450       Al458   1.863       .  S
O451        C460   1.256       .  A
O451       Al458   1.864       .  S
O452       Al458   1.930       .  S
O453        C460   1.273       .  A
O454       Al458   1.765       .  S
O455        C456   1.263       .  A
C456       C1993   1.478       .  S
C457       C1369   1.464       .  S
C460        C977   1.484       .  S
C461        O462   1.266       .  A
C461       C1241   1.487       .  S
O463        C478   1.270       .  A
O463       Al471   1.943       .  S
C464        O474   1.265       .  A
C464        O465   1.262       .  A
C464        C913   1.476       .  S
O465       Al467   1.892       .  S
O466        C468   1.270       .  A
O466       Al467   1.958       .  S
Al467       O475   1.955       .  S
Al467       O477   1.885       .  S
Al467       O476   1.773       .  S
C468        O481   1.259       .  A
C468       C1745   1.480       .  S
O469        C479   1.265       .  A
O469       Al471   1.941       .  S
O470        C483   1.269       .  A
O470       Al480   1.941       .  S
Al471       O484   1.896       .  S
Al471       O481   1.888       .  S
Al471       O476   1.775       .  S
O472        C479   1.251       .  A
O472       Al480   1.861       .  S
O473        C482   1.259       .  A
O473       Al480   1.877       .  S
O474       Al480   1.923       .  S
O475        C482   1.272       .  A
O476       Al480   1.768       .  S
O477        C478   1.263       .  A
C478       C1929   1.478       .  S
C479        C929   1.452       .  S
C482        C985   1.477       .  S
C483        O484   1.264       .  A
C483        C953   1.487       .  S
O485        C500   1.271       .  A
O485       Al493   1.958       .  S
C486        O496   1.270       .  A
C486        O487   1.257       .  A
C486        C961   1.480       .  S
O487       Al489   1.864       .  S
O488        C490   1.273       .  A
O488       Al489   1.963       .  S
Al489       O497   1.953       .  S
Al489       O499   1.868       .  S
Al489       O498   1.769       .  S
C490        O503   1.263       .  A
C490       C1353   1.490       .  S
O491        C501   1.269       .  A
O491       Al493   1.961       .  S
O492        C505   1.275       .  A
O492       Al502   1.968       .  S
Al493       O506   1.893       .  S
Al493       O503   1.896       .  S
Al493       O498   1.779       .  S
O494        C501   1.251       .  A
O494       Al502   1.859       .  S
O495        C504   1.258       .  A
O495       Al502   1.881       .  S
O496       Al502   1.951       .  S
O497        C504   1.270       .  A
O498       Al502   1.768       .  S
O499        C500   1.258       .  A
C500       C2145   1.474       .  S
C501       C1489   1.478       .  S
C504        C905   1.484       .  S
C505        O506   1.264       .  A
C505       C1641   1.494       .  S
O507        C522   1.272       .  A
O507       Al515   1.945       .  S
C508        O518   1.267       .  A
C508        O509   1.263       .  A
C508        C921   1.474       .  S
O509       Al511   1.883       .  S
O510        C512   1.268       .  A
O510       Al511   1.949       .  S
Al511       O519   1.949       .  S
Al511       O521   1.891       .  S
Al511       O520   1.778       .  S
C512        O525   1.264       .  A
C512        C881   1.492       .  S
O513        C523   1.268       .  A
O513       Al515   1.952       .  S
O514        C527   1.269       .  A
O514       Al524   1.938       .  S
Al515       O528   1.895       .  S
Al515       O525   1.912       .  S
Al515       O520   1.778       .  S
O516        C523   1.251       .  A
O516       Al524   1.860       .  S
O517        C526   1.258       .  A
O517       Al524   1.884       .  S
O518       Al524   1.929       .  S
O519        C526   1.268       .  A
O520       Al524   1.774       .  S
O521        C522   1.265       .  A
C522       C2073   1.485       .  S
C523       C1769   1.478       .  S
C526        C897   1.481       .  S
C527        O528   1.262       .  A
C527       C1913   1.488       .  S
O529        C544   1.263       .  A
O529       Al537   1.903       .  S
C530        O540   1.262       .  A
C530        O531   1.263       .  A
C530        C857   1.479       .  S
O531       Al533   1.920       .  S
O532        C534   1.252       .  A
O532       Al533   1.868       .  S
Al533       O541   1.888       .  S
Al533       O543   1.945       .  S
Al533       O542   1.779       .  S
C534        O547   1.264       .  A
C534        C937   1.451       .  S
O535        C545   1.263       .  A
O535       Al537   1.914       .  S
O536        C549   1.267       .  A
O536       Al546   1.903   1_565  S
Al537       O550   1.914       .  S
Al537       O547   1.927       .  S
Al537       O542   1.781       .  S
O538        C545   1.264   1_565  A
O538       Al546   1.921   1_565  S
O539        C548   1.269       .  A
O539       Al546   1.939       .  S
O540       Al546   1.900       .  S
O541        C548   1.261       .  A
O542       Al546   1.780       .  S
O543        C544   1.267       .  A
C544        C889   1.496       .  S
C545       C1937   1.490   1_545  S
C548        C865   1.480       .  S
C549        O550   1.267   1_565  A
C549       C1721   1.478       .  S
O551        C566   1.267       .  A
O551       Al559   1.909       .  S
C552        O562   1.257       .  A
C552        O553   1.267       .  A
C552        C841   1.479       .  S
O553       Al555   1.940       .  S
O554        C556   1.254       .  A
O554       Al555   1.860       .  S
Al555       O563   1.875       .  S
Al555       O565   1.943       .  S
Al555       O564   1.764       .  S
C556        O569   1.265       .  A
C556       C1105   1.467       .  S
O557        C567   1.260       .  A
O557       Al559   1.887       .  S
O558        C571   1.258       .  A
O558       Al568   1.872       .  S
Al559       O572   1.945       .  S
Al559       O569   1.936       .  S
Al559       O564   1.782       .  S
O560        C567   1.272       .  A
O560       Al568   1.964       .  S
O561        C570   1.271       .  A
O561       Al568   1.959       .  S
O562       Al568   1.875       .  S
O563        C570   1.258       .  A
O564       Al568   1.774       .  S
O565        C566   1.270       .  A
C566       C1033   1.492       .  S
C567        C817   1.491       .  S
C570        C873   1.483       .  S
C571        O572   1.270       .  A
C571       C1657   1.471       .  S
O573        C588   1.262       .  A
O573       Al581   1.899       .  S
C574        O584   1.264       .  A
C574        O575   1.265   1_554  A
C574        C849   1.474       .  S
O575       Al577   1.922       .  S
O576        C578   1.254       .  A
O576       Al577   1.857       .  S
Al577       O585   1.889       .  S
Al577       O587   1.932       .  S
Al577       O586   1.773       .  S
C578        O591   1.264       .  A
C578       C1961   1.468       .  S
O579        C589   1.259       .  A
O579       Al581   1.898       .  S
O580        C593   1.264       .  A
O580       Al590   1.884       .  S
Al581       O594   1.926       .  S
Al581       O591   1.928       .  S
Al581       O586   1.780       .  S
O582        C589   1.265       .  A
O582       Al590   1.939       .  S
O583        C592   1.266       .  A
O583       Al590   1.935       .  S
O584       Al590   1.897   1_554  S
O585        C592   1.260       .  A
O586       Al590   1.783       .  S
O587        C588   1.266       .  A
C588       C2089   1.490       .  S
C589        C945   1.480   1_556  S
C592        C801   1.478       .  S
C593        O594   1.269       .  A
C593       C1865   1.475       .  S
O595        C610   1.263       .  A
O595       Al603   1.888       .  S
C596        O606   1.258       .  A
C596        O597   1.268   1_554  A
C596        C833   1.477       .  S
O597       Al599   1.937       .  S
O598        C600   1.250       .  A
O598       Al599   1.860       .  S
Al599       O607   1.882       .  S
Al599       O609   1.954       .  S
Al599       O608   1.774       .  S
C600        O613   1.268       .  A
C600        C769   1.480       .  S
O601        C611   1.266   1_556  A
O601       Al603   1.917       .  S
O602        C615   1.262   1_545  A
O602       Al612   1.886       .  S
Al603       O616   1.945       .  S
Al603       O613   1.956       .  S
Al603       O608   1.783       .  S
O604        C611   1.270   1_556  A
O604       Al612   1.937       .  S
O605        C614   1.266       .  A
O605       Al612   1.939       .  S
O606       Al612   1.872   1_554  S
O607        C614   1.257       .  A
O608       Al612   1.773       .  S
O609        C610   1.272       .  A
C610        C785   1.489       .  S
C611       C1121   1.494   1_545  S
C614        C809   1.480       .  S
C615        O616   1.270   1_565  A
C615       C1785   1.479       .  S
O617        C632   1.265       .  A
O617       Al625   1.919       .  S
C618        O628   1.267       .  A
C618        O619   1.258       .  A
C618        C737   1.483       .  S
O619       Al621   1.881       .  S
O620        C622   1.271       .  A
O620       Al621   1.954       .  S
Al621       O629   1.959       .  S
Al621       O631   1.882       .  S
Al621       O630   1.777       .  S
C622        O635   1.260       .  A
C622        C793   1.482       .  S
O623        C633   1.260       .  A
O623       Al625   1.909       .  S
O624        C637   1.270       .  A
O624       Al634   1.940       .  S
Al625       O638   1.904       .  S
Al625       O635   1.889       .  S
Al625       O630   1.782       .  S
O626        C633   1.254       .  A
O626       Al634   1.867       .  S
O627        C636   1.256       .  A
O627       Al634   1.869       .  S
O628       Al634   1.939       .  S
O629        C636   1.271       .  A
O630       Al634   1.768       .  S
O631        C632   1.262       .  A
C632       C1009   1.473       .  S
C633       C1817   1.461       .  S
C636        C753   1.485       .  S
C637        O638   1.266       .  A
C637       C1665   1.487       .  S
O639        C654   1.269       .  A
O639       Al647   1.921       .  S
C640        O650   1.267       .  A
C640        O641   1.265       .  A
C640        C721   1.487       .  S
O641       Al643   1.905       .  S
O642        C644   1.263       .  A
O642       Al643   1.922       .  S
Al643       O651   1.932       .  S
Al643       O653   1.898       .  S
Al643       O652   1.780       .  S
C644        O657   1.262       .  A
C644       C1201   1.489       .  S
O645        C655   1.266       .  A
O645       Al647   1.933       .  S
O646        C659   1.267       .  A
O646       Al656   1.939       .  S
Al647       O660   1.899       .  S
Al647       O657   1.911       .  S
Al647       O652   1.781       .  S
O648        C655   1.252       .  A
O648       Al656   1.854       .  S
O649        C658   1.258       .  A
O649       Al656   1.888       .  S
O650       Al656   1.931       .  S
O651        C658   1.266       .  A
O652       Al656   1.778       .  S
O653        C654   1.267       .  A
C654        C993   1.478       .  S
C655       C1529   1.471       .  S
C658        C761   1.476       .  S
C659        O660   1.261       .  A
C659       C1401   1.493       .  S
O661        C676   1.271       .  A
O661       Al669   1.944       .  S
C662        O672   1.272       .  A
C662        O663   1.260       .  A
C662        C745   1.484       .  S
O663       Al665   1.873   1_556  S
O664        C666   1.269       .  A
O664       Al665   1.940   1_556  S
Al665       O673   1.943       .  S
Al665       O675   1.887       .  S
Al665       O674   1.773       .  S
C666        O679   1.266       .  A
C666       C1833   1.492       .  S
O667        C677   1.268       .  A
O667       Al669   1.958       .  S
O668        C681   1.275       .  A
O668       Al678   1.971       .  S
Al669       O682   1.882       .  S
Al669       O679   1.913   1_554  S
Al669       O674   1.780       .  S
O670        C677   1.249       .  A
O670       Al678   1.856       .  S
O671        C680   1.257       .  A
O671       Al678   1.884       .  S
O672       Al678   1.950   1_556  S
O673        C680   1.266       .  A
O674       Al678   1.771       .  S
O675        C676   1.264       .  A
C676       C1089   1.478       .  S
C677        C777   1.480       .  S
C680        C713   1.481       .  S
C681        O682   1.261       .  A
C681        C825   1.495       .  S
O683        C698   1.271       .  A
O683       Al691   1.934       .  S
C684        O694   1.268       .  A
C684        O685   1.265       .  A
C684        C729   1.487       .  S
O685       Al687   1.906   1_556  S
O686        C688   1.264       .  A
O686       Al687   1.929   1_556  S
Al687       O695   1.934       .  S
Al687       O697   1.886       .  S
Al687       O696   1.780       .  S
C688        O701   1.264       .  A
C688       C1545   1.499       .  S
O689        C699   1.267       .  A
O689       Al691   1.942       .  S
O690        C703   1.268       .  A
O690       Al700   1.949       .  S
Al691       O704   1.913       .  S
Al691       O701   1.923   1_554  S
Al691       O696   1.787       .  S
O692        C699   1.252       .  A
O692       Al700   1.847       .  S
O693        C702   1.261       .  A
O693       Al700   1.896       .  S
O694       Al700   1.934   1_556  S
O695        C702   1.267       .  A
O696       Al700   1.775       .  S
O697        C698   1.265       .  A
C698       C1057   1.478       .  S
C699       C1193   1.472       .  S
C702        C705   1.482       .  S
C703        O704   1.264       .  A
C703       C1281   1.505       .  S
C705        C706   1.404       .  A
C705        C710   1.410       .  A
C706        C707   1.399       .  A
C706        H715   1.083       .  S
C707        C708   1.404       .  A
C707        H716   1.084       .  S
C708        C714   1.404       .  A
C708        C709   1.413       .  A
C709        C711   1.406       .  A
C709        C710   1.408       .  A
C710        H717   1.084       .  S
C711        C712   1.402       .  A
C711        H718   1.084       .  S
C712        C713   1.403       .  A
C712        H719   1.083       .  S
C713        C714   1.408       .  A
C714        H720   1.085       .  S
C721        C722   1.408       .  A
C721        C726   1.408       .  A
C722        C723   1.398       .  A
C722        H731   1.083       .  S
C723        C724   1.402       .  A
C723        H732   1.083       .  S
C724        C730   1.408       .  A
C724        C725   1.414       .  A
C725        C727   1.402       .  A
C725        C726   1.408       .  A
C726        H733   1.084       .  S
C727        C728   1.399       .  A
C727        H734   1.083       .  S
C728        C729   1.408       .  A
C728        H735   1.083       .  S
C729        C730   1.408       .  A
C730        H736   1.084       .  S
C737        C738   1.408       .  A
C737        C742   1.406       .  A
C738        C739   1.398       .  A
C738        H747   1.083       .  S
C739        C740   1.401       .  A
C739        H748   1.083       .  S
C740        C746   1.408       .  A
C740        C741   1.415       .  A
C741        C743   1.400       .  A
C741        C742   1.406       .  A
C742        H749   1.084       .  S
C743        C744   1.396       .  A
C743        H750   1.084       .  S
C744        C745   1.409       .  A
C744        H751   1.083       .  S
C745        C746   1.406       .  A
C746        H752   1.084       .  S
C753        C754   1.404       .  A
C753        C758   1.410       .  A
C754        C755   1.404       .  A
C754        H763   1.083       .  S
C755        C756   1.407       .  A
C755        H764   1.083       .  S
C756        C762   1.407       .  A
C756        C757   1.411       .  A
C757        C759   1.404       .  A
C757        C758   1.401       .  A
C758        H765   1.084       .  S
C759        C760   1.397       .  A
C759        H766   1.084       .  S
C760        C761   1.402       .  A
C760        H767   1.083       .  S
C761        C762   1.410       .  A
C762        H768   1.084       .  S
C769        C770   1.403       .  A
C769        C774   1.413       .  A
C770        C771   1.399       .  A
C770        H779   1.083       .  S
C771        C772   1.405       .  A
C771        H780   1.084       .  S
C772        C778   1.399       .  A
C772        C773   1.409       .  A
C773        C775   1.406   1_556  A
C773        C774   1.400       .  A
C774        H781   1.084   1_556  S
C775        C776   1.400       .  A
C775        H782   1.084       .  S
C776        C777   1.403       .  A
C776        H783   1.083       .  S
C777        C778   1.413   1_554  A
C778        H784   1.085       .  S
C785        C786   1.409       .  A
C785        C790   1.409       .  A
C786        C787   1.397       .  A
C786        H795   1.083       .  S
C787        C788   1.400       .  A
C787        H796   1.084       .  S
C788        C794   1.408       .  A
C788        C789   1.415       .  A
C789        C791   1.403       .  A
C789        C790   1.410       .  A
C790        H797   1.084       .  S
C791        C792   1.400       .  A
C791        H798   1.084       .  S
C792        C793   1.407       .  A
C792        H799   1.083       .  S
C793        C794   1.405       .  A
C794        H800   1.084       .  S
C801        C802   1.403       .  A
C801        C806   1.408       .  A
C802        C803   1.400       .  A
C802        H811   1.083       .  S
C803        C804   1.405       .  A
C803        H812   1.083       .  S
C804        C810   1.405       .  A
C804        C805   1.412       .  A
C805        C807   1.405       .  A
C805        C806   1.405       .  A
C806        H813   1.084       .  S
C807        C808   1.400       .  A
C807        H814   1.083       .  S
C808        C809   1.403       .  A
C808        H815   1.083       .  S
C809        C810   1.409       .  A
C810        H816   1.084       .  S
C817        C818   1.409       .  A
C817        C822   1.407       .  A
C818        C819   1.400       .  A
C818        H827   1.083       .  S
C819        C820   1.401       .  A
C819        H828   1.084       .  S
C820        C826   1.414       .  A
C820        C821   1.416       .  A
C821        C823   1.400       .  A
C821        C822   1.413       .  A
C822        H829   1.084       .  S
C823        C824   1.398       .  A
C823        H830   1.084       .  S
C824        C825   1.411       .  A
C824        H831   1.083       .  S
C825        C826   1.408       .  A
C826        H832   1.084       .  S
C833        C834   1.407       .  A
C833        C838   1.404       .  A
C834        C835   1.395       .  A
C834        H843   1.083       .  S
C835        C836   1.400       .  A
C835        H844   1.084       .  S
C836        C842   1.404       .  A
C836        C837   1.415       .  A
C837        C839   1.400       .  A
C837        C838   1.404       .  A
C838        H845   1.084       .  S
C839        C840   1.396       .  A
C839        H846   1.084       .  S
C840        C841   1.408       .  A
C840        H847   1.083       .  S
C841        C842   1.405       .  A
C842        H848   1.084       .  S
C849        C850   1.406       .  A
C849        C854   1.404       .  A
C850        C851   1.395       .  A
C850        H859   1.084       .  S
C851        C852   1.401       .  A
C851        H860   1.083       .  S
C852        C858   1.403       .  A
C852        C853   1.415       .  A
C853        C855   1.400       .  A
C853        C854   1.404       .  A
C854        H861   1.084       .  S
C855        C856   1.396       .  A
C855        H862   1.083       .  S
C856        C857   1.407       .  A
C856        H863   1.083       .  S
C857        C858   1.405       .  A
C858        H864   1.084       .  S
C865        C866   1.403       .  A
C865        C870   1.410       .  A
C866        C867   1.399       .  A
C866        H875   1.083       .  S
C867        C868   1.404       .  A
C867        H876   1.084       .  S
C868        C874   1.403       .  A
C868        C869   1.412       .  A
C869        C871   1.407       .  A
C869        C870   1.407       .  A
C870        H877   1.084       .  S
C871        C872   1.403       .  A
C871        H878   1.083       .  S
C872        C873   1.404       .  A
C872        H879   1.083       .  S
C873        C874   1.410       .  A
C874        H880   1.084       .  S
C881        C882   1.407   1_655  A
C881        C886   1.409       .  A
C882        C883   1.404       .  A
C882        H891   1.083       .  S
C883        C884   1.405       .  A
C883        H892   1.084       .  S
C884        C890   1.414       .  A
C884        C885   1.414   1_455  A
C885        C887   1.402       .  A
C885        C886   1.411       .  A
C886        H893   1.085       .  S
C887        C888   1.400   1_655  A
C887        H894   1.084       .  S
C888        C889   1.408       .  A
C888        H895   1.083   1_455  S
C889        C890   1.413       .  A
C890        H896   1.084       .  S
C897        C898   1.402       .  A
C897        C902   1.411       .  A
C898        C899   1.402       .  A
C898        H907   1.083       .  S
C899        C900   1.406       .  A
C899        H908   1.083       .  S
C900        C906   1.406       .  A
C900        C901   1.412       .  A
C901        C903   1.406       .  A
C901        C902   1.406       .  A
C902        H909   1.084       .  S
C903        C904   1.402       .  A
C903        H910   1.083       .  S
C904        C905   1.403       .  A
C904        H911   1.083       .  S
C905        C906   1.411       .  A
C906        H912   1.084       .  S
C913        C914   1.406       .  A
C913        C918   1.406       .  A
C914        C915   1.394       .  A
C914        H923   1.083       .  S
C915        C916   1.400       .  A
C915        H924   1.084       .  S
C916        C922   1.400       .  A
C916        C917   1.414       .  A
C917        C919   1.402       .  A
C917        C918   1.402       .  A
C918        H925   1.084       .  S
C919        C920   1.397       .  A
C919        H926   1.084       .  S
C920        C921   1.406       .  A
C920        H927   1.083       .  S
C921        C922   1.404       .  A
C922        H928   1.084       .  S
C929        C930   1.402       .  A
C929        C934   1.401       .  A
C930        C931   1.392       .  A
C930        H939   1.084       .  S
C931        C932   1.401       .  A
C931        H940   1.083       .  S
C932        C938   1.395       .  A
C932        C933   1.415       .  A
C933        C935   1.403   1_655  A
C933        C934   1.398       .  A
C934        H941   1.085       .  S
C935        C936   1.396       .  A
C935        H942   1.083       .  S
C936        C937   1.402       .  A
C936        H943   1.084       .  S
C937        C938   1.399   1_455  A
C938        H944   1.085       .  S
C945        C946   1.405   1_455  A
C945        C950   1.406       .  A
C946        C947   1.399       .  A
C946        H955   1.083       .  S
C947        C948   1.403       .  A
C947        H956   1.084       .  S
C948        C954   1.407       .  A
C948        C949   1.414       .  A
C949        C951   1.402       .  A
C949        C950   1.408   1_655  A
C950        H957   1.085       .  S
C951        C952   1.399       .  A
C951        H958   1.084   1_655  S
C952        C953   1.407       .  A
C952        H959   1.083       .  S
C953        C954   1.409       .  A
C954        H960   1.084       .  S
C961        C962   1.408       .  A
C961        C966   1.405       .  A
C962        C963   1.394       .  A
C962        H971   1.083       .  S
C963        C964   1.399       .  A
C963        H972   1.084       .  S
C964        C970   1.403       .  A
C964        C965   1.415       .  A
C965        C967   1.401       .  A
C965        C966   1.407       .  A
C966        H973   1.084       .  S
C967        C968   1.398       .  A
C967        H974   1.084       .  S
C968        C969   1.407       .  A
C968        H975   1.083       .  S
C969        C970   1.404       .  A
C970        H976   1.084       .  S
C977        C978   1.403       .  A
C977        C982   1.412       .  A
C978        C979   1.403       .  A
C978        H987   1.083       .  S
C979        C980   1.408       .  A
C979        H988   1.083       .  S
C980        C986   1.405       .  A
C980        C981   1.410       .  A
C981        C983   1.406       .  A
C981        C982   1.401       .  A
C982        H989   1.084       .  S
C983        C984   1.399       .  A
C983        H990   1.084       .  S
C984        C985   1.401       .  A
C984        H991   1.083       .  S
C985        C986   1.411       .  A
C986        H992   1.084       .  S
C993        C994   1.407       .  A
C993        C998   1.405       .  A
C994        C995   1.395       .  A
C994       H1003   1.083       .  S
C995        C996   1.400       .  A
C995       H1004   1.083       .  S
C996       C1002   1.402       .  A
C996        C997   1.414       .  A
C997        C999   1.401       .  A
C997        C998   1.403       .  A
C998       H1005   1.084       .  S
C999       C1000   1.396       .  A
C999       H1006   1.083       .  S
C1000      C1001   1.406       .  A
C1000      H1007   1.083       .  S
C1001      C1002   1.405       .  A
C1002      H1008   1.084       .  S
C1009      C1010   1.406       .  A
C1009      C1014   1.402       .  A
C1010      C1011   1.397       .  A
C1010      H1019   1.083       .  S
C1011      C1012   1.401       .  A
C1011      H1020   1.083       .  S
C1012      C1018   1.402       .  A
C1012      C1013   1.414       .  A
C1013      C1015   1.398       .  A
C1013      C1014   1.396       .  A
C1014      H1021   1.084       .  S
C1015      C1016   1.390       .  A
C1015      H1022   1.084       .  S
C1016      C1017   1.407       .  A
C1016      H1023   1.083       .  S
C1017      C1018   1.404       .  A
C1018      H1024   1.084       .  S
C1025      C1026   1.407       .  A
C1025      C1030   1.411       .  A
C1026      C1027   1.401       .  A
C1026      H1035   1.083       .  S
C1027      C1028   1.403       .  A
C1027      H1036   1.083       .  S
C1028      C1034   1.411       .  A
C1028      C1029   1.414       .  A
C1029      C1031   1.404       .  A
C1029      C1030   1.413       .  A
C1030      H1037   1.083       .  S
C1031      C1032   1.402       .  A
C1031      H1038   1.083       .  S
C1032      C1033   1.407       .  A
C1032      H1039   1.083       .  S
C1033      C1034   1.410       .  A
C1034      H1040   1.084       .  S
C1041      C1042   1.404       .  A
C1041      C1046   1.409       .  A
C1042      C1043   1.401       .  A
C1042      H1051   1.083       .  S
C1043      C1044   1.405       .  A
C1043      H1052   1.084       .  S
C1044      C1050   1.407       .  A
C1044      C1045   1.413       .  A
C1045      C1047   1.405       .  A
C1045      C1046   1.405       .  A
C1046      H1053   1.085       .  S
C1047      C1048   1.400       .  A
C1047      H1054   1.084       .  S
C1048      C1049   1.403       .  A
C1048      H1055   1.083       .  S
C1049      C1050   1.409       .  A
C1050      H1056   1.085       .  S
C1057      C1058   1.406       .  A
C1057      C1062   1.406       .  A
C1058      C1059   1.396       .  A
C1058      H1067   1.083       .  S
C1059      C1060   1.401       .  A
C1059      H1068   1.084       .  S
C1060      C1066   1.402       .  A
C1060      C1061   1.414       .  A
C1061      C1063   1.401       .  A
C1061      C1062   1.404       .  A
C1062      H1069   1.084       .  S
C1063      C1064   1.397       .  A
C1063      H1070   1.084       .  S
C1064      C1065   1.407       .  A
C1064      H1071   1.083       .  S
C1065      C1066   1.406       .  A
C1066      H1072   1.084       .  S
C1073      C1074   1.408       .  A
C1073      C1078   1.407       .  A
C1074      C1075   1.396       .  A
C1074      H1083   1.083       .  S
C1075      C1076   1.400       .  A
C1075      H1084   1.083       .  S
C1076      C1082   1.406       .  A
C1076      C1077   1.415       .  A
C1077      C1079   1.402       .  A
C1077      C1078   1.409       .  A
C1078      H1085   1.084       .  S
C1079      C1080   1.400       .  A
C1079      H1086   1.083       .  S
C1080      C1081   1.408       .  A
C1080      H1087   1.083       .  S
C1081      C1082   1.406       .  A
C1082      H1088   1.084       .  S
C1089      C1090   1.406       .  A
C1089      C1094   1.408       .  A
C1090      C1091   1.395       .  A
C1090      H1099   1.083       .  S
C1091      C1092   1.401       .  A
C1091      H1100   1.084       .  S
C1092      C1098   1.400       .  A
C1092      C1093   1.413       .  A
C1093      C1095   1.404       .  A
C1093      C1094   1.405       .  A
C1094      H1101   1.084       .  S
C1095      C1096   1.400       .  A
C1095      H1102   1.083       .  S
C1096      C1097   1.406       .  A
C1096      H1103   1.083       .  S
C1097      C1098   1.407       .  A
C1098      H1104   1.084       .  S
C1105      C1106   1.402       .  A
C1105      C1110   1.406       .  A
C1106      C1107   1.397       .  A
C1106      H1115   1.083       .  S
C1107      C1108   1.404       .  A
C1107      H1116   1.084       .  S
C1108      C1114   1.395   1_545  A
C1108      C1109   1.410       .  A
C1109      C1111   1.401   1_545  A
C1109      C1110   1.391       .  A
C1110      H1117   1.085       .  S
C1111      C1112   1.392       .  A
C1111      H1118   1.084       .  S
C1112      C1113   1.402       .  A
C1112      H1119   1.083       .  S
C1113      C1114   1.408       .  A
C1114      H1120   1.084       .  S
C1121      C1122   1.407       .  A
C1121      C1126   1.414       .  A
C1122      C1123   1.397       .  A
C1122      H1131   1.083       .  S
C1123      C1124   1.400       .  A
C1123      H1132   1.084       .  S
C1124      C1130   1.407       .  A
C1124      C1125   1.414       .  A
C1125      C1127   1.407       .  A
C1125      C1126   1.416       .  A
C1126      H1133   1.084   1_565  S
C1127      C1128   1.407       .  A
C1127      H1134   1.083       .  S
C1128      C1129   1.406       .  A
C1128      H1135   1.083       .  S
C1129      C1130   1.407       .  A
C1130      H1136   1.084       .  S
C1137      C1138   1.408       .  A
C1137      C1142   1.404       .  A
C1138      C1139   1.396       .  A
C1138      H1147   1.083       .  S
C1139      C1140   1.400       .  A
C1139      H1148   1.084       .  S
C1140      C1146   1.404       .  A
C1140      C1141   1.415       .  A
C1141      C1143   1.399       .  A
C1141      C1142   1.403       .  A
C1142      H1149   1.084       .  S
C1143      C1144   1.395       .  A
C1143      H1150   1.084       .  S
C1144      C1145   1.407       .  A
C1144      H1151   1.083       .  S
C1145      C1146   1.404       .  A
C1146      H1152   1.084       .  S
C1153      C1154   1.403       .  A
C1153      C1158   1.410       .  A
C1154      C1155   1.401       .  A
C1154      H1163   1.083       .  S
C1155      C1156   1.406       .  A
C1155      H1164   1.084       .  S
C1156      C1162   1.404       .  A
C1156      C1157   1.411       .  A
C1157      C1159   1.405       .  A
C1157      C1158   1.403       .  A
C1158      H1165   1.085       .  S
C1159      C1160   1.399       .  A
C1159      H1166   1.084       .  S
C1160      C1161   1.402       .  A
C1160      H1167   1.083       .  S
C1161      C1162   1.410       .  A
C1162      H1168   1.084       .  S
C1169      C1170   1.409       .  A
C1169      C1174   1.407       .  A
C1170      C1171   1.401       .  A
C1170      H1179   1.083       .  S
C1171      C1172   1.402       .  A
C1171      H1180   1.083       .  S
C1172      C1178   1.413       .  A
C1172      C1173   1.415       .  A
C1173      C1175   1.400       .  A
C1173      C1174   1.410       .  A
C1174      H1181   1.084       .  S
C1175      C1176   1.397       .  A
C1175      H1182   1.083       .  S
C1176      C1177   1.410       .  A
C1176      H1183   1.083       .  S
C1177      C1178   1.408       .  A
C1178      H1184   1.084       .  S
C1185      C1186   1.402       .  A
C1185      C1190   1.411   1_556  A
C1186      C1187   1.391       .  A
C1186      H1195   1.083       .  S
C1187      C1188   1.401       .  A
C1187      H1196   1.084       .  S
C1188      C1194   1.390       .  A
C1188      C1189   1.409   1_556  A
C1189      C1191   1.406       .  A
C1189      C1190   1.399       .  A
C1190      H1197   1.085       .  S
C1191      C1192   1.400       .  A
C1191      H1198   1.084       .  S
C1192      C1193   1.403       .  A
C1192      H1199   1.083       .  S
C1193      C1194   1.408   1_554  A
C1194      H1200   1.085       .  S
C1201      C1202   1.409       .  A
C1201      C1206   1.408       .  A
C1202      C1203   1.399       .  A
C1202      H1211   1.083       .  S
C1203      C1204   1.401       .  A
C1203      H1212   1.083       .  S
C1204      C1210   1.409       .  A
C1204      C1205   1.415       .  A
C1205      C1207   1.401       .  A
C1205      C1206   1.409       .  A
C1206      H1213   1.084       .  S
C1207      C1208   1.398       .  A
C1207      H1214   1.083       .  S
C1208      C1209   1.408       .  A
C1208      H1215   1.083       .  S
C1209      C1210   1.407       .  A
C1210      H1216   1.084       .  S
C1217      C1218   1.403       .  A
C1217      C1222   1.410       .  A
C1218      C1219   1.399       .  A
C1218      H1227   1.083       .  S
C1219      C1220   1.404       .  A
C1219      H1228   1.083       .  S
C1220      C1226   1.401       .  A
C1220      C1221   1.412       .  A
C1221      C1223   1.405       .  A
C1221      C1222   1.402       .  A
C1222      H1229   1.084       .  S
C1223      C1224   1.399       .  A
C1223      H1230   1.083       .  S
C1224      C1225   1.403       .  A
C1224      H1231   1.083       .  S
C1225      C1226   1.408       .  A
C1226      H1232   1.084       .  S
C1233      C1234   1.408       .  A
C1233      C1238   1.407       .  A
C1234      C1235   1.398       .  A
C1234      H1243   1.083       .  S
C1235      C1236   1.401       .  A
C1235      H1244   1.083       .  S
C1236      C1242   1.408       .  A
C1236      C1237   1.415       .  A
C1237      C1239   1.402       .  A
C1237      C1238   1.409       .  A
C1238      H1245   1.084       .  S
C1239      C1240   1.399       .  A
C1239      H1246   1.083       .  S
C1240      C1241   1.408       .  A
C1240      H1247   1.083       .  S
C1241      C1242   1.407       .  A
C1242      H1248   1.084       .  S
C1249      C1250   1.402       .  A
C1249      C1254   1.406       .  A
C1250      C1251   1.389       .  A
C1250      H1259   1.083       .  S
C1251      C1252   1.400       .  A
C1251      H1260   1.084       .  S
C1252      C1258   1.386       .  A
C1252      C1253   1.411       .  A
C1253      C1255   1.404       .  A
C1253      C1254   1.392       .  A
C1254      H1261   1.084       .  S
C1255      C1256   1.396       .  A
C1255      H1262   1.083       .  S
C1256      C1257   1.402       .  A
C1256      H1263   1.083       .  S
C1257      C1258   1.404       .  A
C1258      H1264   1.085       .  S
C1265      C1266   1.407       .  A
C1265      C1270   1.409       .  A
C1266      C1267   1.405       .  A
C1266      H1275   1.083       .  S
C1267      C1268   1.406       .  A
C1267      H1276   1.083       .  S
C1268      C1274   1.417       .  A
C1268      C1269   1.414       .  A
C1269      C1271   1.402       .  A
C1269      C1270   1.412       .  A
C1270      H1277   1.084       .  S
C1271      C1272   1.400       .  A
C1271      H1278   1.084       .  S
C1272      C1273   1.409       .  A
C1272      H1279   1.083       .  S
C1273      C1274   1.414       .  A
C1274      H1280   1.084       .  S
C1281      C1282   1.410       .  A
C1281      C1286   1.414       .  A
C1282      C1283   1.405       .  A
C1282      H1291   1.083       .  S
C1283      C1284   1.405       .  A
C1283      H1292   1.084       .  S
C1284      C1290   1.420       .  A
C1284      C1285   1.414       .  A
C1285      C1287   1.404       .  A
C1285      C1286   1.417       .  A
C1286      H1293   1.084       .  S
C1287      C1288   1.403       .  A
C1287      H1294   1.084       .  S
C1288      C1289   1.408       .  A
C1288      H1295   1.083       .  S
C1289      C1290   1.413       .  A
C1290      H1296   1.084       .  S
C1297      C1298   1.408       .  A
C1297      C1302   1.405       .  A
C1298      C1299   1.400       .  A
C1298      H1307   1.083       .  S
C1299      C1300   1.402       .  A
C1299      H1308   1.083       .  S
C1300      C1306   1.411       .  A
C1300      C1301   1.415       .  A
C1301      C1303   1.399       .  A
C1301      C1302   1.406       .  A
C1302      H1309   1.084       .  S
C1303      C1304   1.395       .  A
C1303      H1310   1.084       .  S
C1304      C1305   1.408       .  A
C1304      H1311   1.083       .  S
C1305      C1306   1.407       .  A
C1306      H1312   1.084       .  S
C1313      C1314   1.406       .  A
C1313      C1318   1.407       .  A
C1314      C1315   1.397       .  A
C1314      H1323   1.083       .  S
C1315      C1316   1.401       .  A
C1315      H1324   1.084       .  S
C1316      C1322   1.406       .  A
C1316      C1317   1.414       .  A
C1317      C1319   1.402       .  A
C1317      C1318   1.409       .  A
C1318      H1325   1.084       .  S
C1319      C1320   1.400       .  A
C1319      H1326   1.084       .  S
C1320      C1321   1.408       .  A
C1320      H1327   1.083       .  S
C1321      C1322   1.407       .  A
C1322      H1328   1.084       .  S
C1329      C1330   1.403       .  A
C1329      C1334   1.412       .  A
C1330      C1331   1.402       .  A
C1330      H1339   1.083       .  S
C1331      C1332   1.407       .  A
C1331      H1340   1.084       .  S
C1332      C1338   1.407       .  A
C1332      C1333   1.411       .  A
C1333      C1335   1.407       .  A
C1333      C1334   1.407       .  A
C1334      H1341   1.085       .  S
C1335      C1336   1.402       .  A
C1335      H1342   1.084       .  S
C1336      C1337   1.403       .  A
C1336      H1343   1.083       .  S
C1337      C1338   1.411       .  A
C1338      H1344   1.084       .  S
C1345      C1346   1.410       .  A
C1345      C1350   1.409       .  A
C1346      C1347   1.399       .  A
C1346      H1355   1.083       .  S
C1347      C1348   1.401       .  A
C1347      H1356   1.084       .  S
C1348      C1354   1.411       .  A
C1348      C1349   1.415       .  A
C1349      C1351   1.402       .  A
C1349      C1350   1.412       .  A
C1350      H1357   1.084       .  S
C1351      C1352   1.401       .  A
C1351      H1358   1.084       .  S
C1352      C1353   1.408       .  A
C1352      H1359   1.083       .  S
C1353      C1354   1.408       .  A
C1354      H1360   1.084       .  S
C1361      C1362   1.402       .  A
C1361      C1366   1.407       .  A
C1362      C1363   1.395       .  A
C1362      H1371   1.083       .  S
C1363      C1364   1.403       .  A
C1363      H1372   1.084       .  S
C1364      C1370   1.392       .  A
C1364      C1365   1.410       .  A
C1365      C1367   1.402       .  A
C1365      C1366   1.390       .  A
C1366      H1373   1.085       .  S
C1367      C1368   1.392       .  A
C1367      H1374   1.084       .  S
C1368      C1369   1.402       .  A
C1368      H1375   1.083       .  S
C1369      C1370   1.407       .  A
C1370      H1376   1.084       .  S
C1377      C1378   1.407       .  A
C1377      C1382   1.404       .  A
C1378      C1379   1.395       .  A
C1378      H1387   1.083       .  S
C1379      C1380   1.400       .  A
C1379      H1388   1.083       .  S
C1380      C1386   1.402       .  A
C1380      C1381   1.414       .  A
C1381      C1383   1.400       .  A
C1381      C1382   1.401       .  A
C1382      H1389   1.084       .  S
C1383      C1384   1.394       .  A
C1383      H1390   1.083       .  S
C1384      C1385   1.407       .  A
C1384      H1391   1.083       .  S
C1385      C1386   1.404       .  A
C1386      H1392   1.084       .  S
C1393      C1394   1.406       .  A
C1393      C1398   1.410       .  A
C1394      C1395   1.398       .  A
C1394      H1403   1.083       .  S
C1395      C1396   1.402       .  A
C1395      H1404   1.084       .  S
C1396      C1402   1.409       .  A
C1396      C1397   1.414       .  A
C1397      C1399   1.404       .  A
C1397      C1398   1.413       .  A
C1398      H1405   1.085       .  S
C1399      C1400   1.402       .  A
C1399      H1406   1.084       .  S
C1400      C1401   1.409       .  A
C1400      H1407   1.083       .  S
C1401      C1402   1.409       .  A
C1402      H1408   1.085       .  S
C1409      C1410   1.406       .  A
C1409      C1414   1.408   1_565  A
C1410      C1411   1.402       .  A
C1410      H1419   1.083       .  S
C1411      C1412   1.404   1_565  A
C1411      H1420   1.084       .  S
C1412      C1418   1.412       .  A
C1412      C1413   1.414       .  A
C1413      C1415   1.401       .  A
C1413      C1414   1.409       .  A
C1414      H1421   1.085       .  S
C1415      C1416   1.399       .  A
C1415      H1422   1.084       .  S
C1416      C1417   1.408       .  A
C1416      H1423   1.083       .  S
C1417      C1418   1.411       .  A
C1418      H1424   1.084       .  S
C1425      C1426   1.401       .  A
C1425      C1430   1.410       .  A
C1426      C1427   1.390       .  A
C1426      H1435   1.086       .  S
C1427      C1428   1.402   1_545  A
C1427      H1436   1.074       .  S
C1428      C1434   1.387       .  A
C1428      C1429   1.409       .  A
C1429      C1431   1.407       .  A
C1429      C1430   1.395   1_565  A
C1430      H1437   1.076       .  S
C1431      C1432   1.400       .  A
C1431      H1438   1.073       .  S
C1432      C1433   1.401       .  A
C1432      H1439   1.086       .  S
C1433      C1434   1.409       .  A
C1434      H1440   1.076       .  S
C1441      C1442   1.407       .  A
C1441      C1446   1.407       .  A
C1442      C1443   1.396       .  A
C1442      H1451   1.083       .  S
C1443      C1444   1.400       .  A
C1443      H1452   1.084       .  S
C1444      C1450   1.404       .  A
C1444      C1445   1.414       .  A
C1445      C1447   1.402       .  A
C1445      C1446   1.406       .  A
C1446      H1453   1.084       .  S
C1447      C1448   1.398       .  A
C1447      H1454   1.084       .  S
C1448      C1449   1.408       .  A
C1448      H1455   1.083       .  S
C1449      C1450   1.406       .  A
C1450      H1456   1.084       .  S
C1457      C1458   1.402       .  A
C1457      C1462   1.408       .  A
C1458      C1459   1.400       .  A
C1458      H1467   1.083       .  S
C1459      C1460   1.405       .  A
C1459      H1468   1.084       .  S
C1460      C1466   1.405       .  A
C1460      C1461   1.413       .  A
C1461      C1463   1.405       .  A
C1461      C1462   1.406       .  A
C1462      H1469   1.085       .  S
C1463      C1464   1.401       .  A
C1463      H1470   1.084       .  S
C1464      C1465   1.404       .  A
C1464      H1471   1.083       .  S
C1465      C1466   1.410       .  A
C1466      H1472   1.085       .  S
C1473      C1474   1.408       .  A
C1473      C1478   1.408       .  A
C1474      C1475   1.400       .  A
C1474      H1483   1.083       .  S
C1475      C1476   1.402       .  A
C1475      H1484   1.084       .  S
C1476      C1482   1.408       .  A
C1476      C1477   1.414       .  A
C1477      C1479   1.401       .  A
C1477      C1478   1.406       .  A
C1478      H1485   1.084       .  S
C1479      C1480   1.397       .  A
C1479      H1486   1.084       .  S
C1480      C1481   1.407       .  A
C1480      H1487   1.083       .  S
C1481      C1482   1.406       .  A
C1482      H1488   1.084       .  S
C1489      C1490   1.403       .  A
C1489      C1494   1.412       .  A
C1490      C1491   1.399       .  A
C1490      H1499   1.083       .  S
C1491      C1492   1.405       .  A
C1491      H1500   1.084       .  S
C1492      C1498   1.399       .  A
C1492      C1493   1.409       .  A
C1493      C1495   1.405       .  A
C1493      C1494   1.398       .  A
C1494      H1501   1.084       .  S
C1495      C1496   1.398       .  A
C1495      H1502   1.084       .  S
C1496      C1497   1.402       .  A
C1496      H1503   1.083       .  S
C1497      C1498   1.411       .  A
C1498      H1504   1.085       .  S
C1505      C1506   1.409       .  A
C1505      C1510   1.405       .  A
C1506      C1507   1.396       .  A
C1506      H1515   1.083       .  S
C1507      C1508   1.399       .  A
C1507      H1516   1.084       .  S
C1508      C1514   1.407       .  A
C1508      C1509   1.416       .  A
C1509      C1511   1.399       .  A
C1509      C1510   1.406       .  A
C1510      H1517   1.084       .  S
C1511      C1512   1.395       .  A
C1511      H1518   1.084       .  S
C1512      C1513   1.408       .  A
C1512      H1519   1.083       .  S
C1513      C1514   1.404       .  A
C1514      H1520   1.084       .  S
C1521      C1522   1.402       .  A
C1521      C1526   1.409       .  A
C1522      C1523   1.398       .  A
C1522      H1531   1.083       .  S
C1523      C1524   1.406       .  A
C1523      H1532   1.084       .  S
C1524      C1530   1.396       .  A
C1524      C1525   1.409       .  A
C1525      C1527   1.403       .  A
C1525      C1526   1.392       .  A
C1526      H1533   1.084       .  S
C1527      C1528   1.394       .  A
C1527      H1534   1.084       .  S
C1528      C1529   1.401       .  A
C1528      H1535   1.083       .  S
C1529      C1530   1.411       .  A
C1530      H1536   1.084       .  S
C1537      C1538   1.408       .  A
C1537      C1542   1.409       .  A
C1538      C1539   1.403       .  A
C1538      H1547   1.083       .  S
C1539      C1540   1.404       .  A
C1539      H1548   1.084       .  S
C1540      C1546   1.415       .  A
C1540      C1541   1.414       .  A
C1541      C1543   1.402       .  A
C1541      C1542   1.414       .  A
C1542      H1549   1.084       .  S
C1543      C1544   1.401       .  A
C1543      H1550   1.084       .  S
C1544      C1545   1.410       .  A
C1544      H1551   1.083       .  S
C1545      C1546   1.411       .  A
C1546      H1552   1.084       .  S
C1553      C1554   1.407       .  A
C1553      C1558   1.405       .  A
C1554      C1555   1.397       .  A
C1554      H1563   1.083       .  S
C1555      C1556   1.401       .  A
C1555      H1564   1.085       .  S
C1556      C1562   1.405       .  A
C1556      C1557   1.415       .  A
C1557      C1559   1.400       .  A
C1557      C1558   1.404       .  A
C1558      H1565   1.085       .  S
C1559      C1560   1.396       .  A
C1559      H1566   1.084       .  S
C1560      C1561   1.407       .  A
C1560      H1567   1.083       .  S
C1561      C1562   1.405       .  A
C1562      H1568   1.085       .  S
C1569      C1570   1.408       .  A
C1569      C1574   1.412       .  A
C1570      C1571   1.402       .  A
C1570      H1579   1.083   1_565  S
C1571      C1572   1.404       .  A
C1571      H1580   1.084       .  S
C1572      C1578   1.416       .  A
C1572      C1573   1.414       .  A
C1573      C1575   1.404       .  A
C1573      C1574   1.417       .  A
C1574      H1581   1.084       .  S
C1575      C1576   1.404       .  A
C1575      H1582   1.084       .  S
C1576      C1577   1.410       .  A
C1576      H1583   1.083       .  S
C1577      C1578   1.412       .  A
C1578      H1584   1.084       .  S
C1585      C1586   1.406       .  A
C1585      C1590   1.404       .  A
C1586      C1587   1.398       .  A
C1586      H1595   1.083       .  S
C1587      C1588   1.402       .  A
C1587      H1596   1.083       .  S
C1588      C1594   1.406       .  A
C1588      C1589   1.416       .  A
C1589      C1591   1.400       .  A
C1589      C1590   1.403       .  A
C1590      H1597   1.084       .  S
C1591      C1592   1.395       .  A
C1591      H1598   1.084       .  S
C1592      C1593   1.405       .  A
C1592      H1599   1.084       .  S
C1593      C1594   1.403       .  A
C1594      H1600   1.084       .  S
C1601      C1602   1.407       .  A
C1601      C1606   1.403       .  A
C1602      C1603   1.395       .  A
C1602      H1611   1.083       .  S
C1603      C1604   1.400       .  A
C1603      H1612   1.084       .  S
C1604      C1610   1.403       .  A
C1604      C1605   1.415       .  A
C1605      C1607   1.399       .  A
C1605      C1606   1.402       .  A
C1606      H1613   1.084       .  S
C1607      C1608   1.394       .  A
C1607      H1614   1.084       .  S
C1608      C1609   1.407       .  A
C1608      H1615   1.083       .  S
C1609      C1610   1.404       .  A
C1610      H1616   1.084       .  S
C1617      C1618   1.403       .  A
C1617      C1622   1.410       .  A
C1618      C1619   1.398       .  A
C1618      H1627   1.083       .  S
C1619      C1620   1.404       .  A
C1619      H1628   1.084       .  S
C1620      C1626   1.400       .  A
C1620      C1621   1.412       .  A
C1621      C1623   1.407       .  A
C1621      C1622   1.403       .  A
C1622      H1629   1.084       .  S
C1623      C1624   1.401       .  A
C1623      H1630   1.084       .  S
C1624      C1625   1.400       .  A
C1624      H1631   1.083       .  S
C1625      C1626   1.407       .  A
C1626      H1632   1.085       .  S
C1633      C1634   1.406       .  A
C1633      C1638   1.407       .  A
C1634      C1635   1.400       .  A
C1634      H1643   1.083       .  S
C1635      C1636   1.403       .  A
C1635      H1644   1.084       .  S
C1636      C1642   1.412       .  A
C1636      C1637   1.415       .  A
C1637      C1639   1.402       .  A
C1637      C1638   1.413       .  A
C1638      H1645   1.084       .  S
C1639      C1640   1.401       .  A
C1639      H1646   1.084       .  S
C1640      C1641   1.410       .  A
C1640      H1647   1.083       .  S
C1641      C1642   1.410       .  A
C1642      H1648   1.084       .  S
C1649      C1650   1.406       .  A
C1649      C1654   1.404       .  A
C1650      C1651   1.396       .  A
C1650      H1659   1.083       .  S
C1651      C1652   1.401       .  A
C1651      H1660   1.084       .  S
C1652      C1658   1.403       .  A
C1652      C1653   1.415       .  A
C1653      C1655   1.400       .  A
C1653      C1654   1.401       .  A
C1654      H1661   1.084       .  S
C1655      C1656   1.394       .  A
C1655      H1662   1.084       .  S
C1656      C1657   1.406       .  A
C1656      H1663   1.083       .  S
C1657      C1658   1.403       .  A
C1658      H1664   1.084       .  S
C1665      C1666   1.406       .  A
C1665      C1670   1.409       .  A
C1666      C1667   1.401       .  A
C1666      H1675   1.083       .  S
C1667      C1668   1.404       .  A
C1667      H1676   1.083       .  S
C1668      C1674   1.410       .  A
C1668      C1669   1.413       .  A
C1669      C1671   1.403       .  A
C1669      C1670   1.409       .  A
C1670      H1677   1.084       .  S
C1671      C1672   1.400       .  A
C1671      H1678   1.083       .  S
C1672      C1673   1.407       .  A
C1672      H1679   1.083       .  S
C1673      C1674   1.411       .  A
C1674      H1680   1.084       .  S
C1681      C1682   1.409       .  A
C1681      C1686   1.408       .  A
C1682      C1683   1.395       .  A
C1682      H1691   1.083       .  S
C1683      C1684   1.399       .  A
C1683      H1692   1.084       .  S
C1684      C1690   1.405       .  A
C1684      C1685   1.415       .  A
C1685      C1687   1.403       .  A
C1685      C1686   1.410       .  A
C1686      H1693   1.084       .  S
C1687      C1688   1.400       .  A
C1687      H1694   1.084       .  S
C1688      C1689   1.407       .  A
C1688      H1695   1.083       .  S
C1689      C1690   1.404       .  A
C1690      H1696   1.085       .  S
C1697      C1698   1.404       .  A
C1697      C1702   1.404       .  A
C1698      C1699   1.394       .  A
C1698      H1707   1.084       .  S
C1699      C1700   1.400       .  A
C1699      H1708   1.084       .  S
C1700      C1706   1.401       .  A
C1700      C1701   1.415       .  A
C1701      C1703   1.403       .  A
C1701      C1702   1.404       .  A
C1702      H1709   1.085       .  S
C1703      C1704   1.398       .  A
C1703      H1710   1.084       .  S
C1704      C1705   1.405       .  A
C1704      H1711   1.084       .  S
C1705      C1706   1.401       .  A
C1706      H1712   1.085       .  S
C1713      C1714   1.406       .  A
C1713      C1718   1.403       .  A
C1714      C1715   1.398       .  A
C1714      H1723   1.083       .  S
C1715      C1716   1.402       .  A
C1715      H1724   1.083       .  S
C1716      C1722   1.406       .  A
C1716      C1717   1.415       .  A
C1717      C1719   1.400       .  A
C1717      C1718   1.404       .  A
C1718      H1725   1.084       .  S
C1719      C1720   1.395       .  A
C1719      H1726   1.083       .  S
C1720      C1721   1.406       .  A
C1720      H1727   1.083       .  S
C1721      C1722   1.406       .  A
C1722      H1728   1.084       .  S
C1729      C1730   1.410       .  A
C1729      C1734   1.404       .  A
C1730      C1731   1.400       .  A
C1730      H1739   1.083       .  S
C1731      C1732   1.400       .  A
C1731      H1740   1.083       .  S
C1732      C1738   1.414       .  A
C1732      C1733   1.417       .  A
C1733      C1735   1.398       .  A
C1733      C1734   1.410       .  A
C1734      H1741   1.084       .  S
C1735      C1736   1.396       .  A
C1735      H1742   1.084       .  S
C1736      C1737   1.411       .  A
C1736      H1743   1.083       .  S
C1737      C1738   1.406       .  A
C1738      H1744   1.084       .  S
C1745      C1746   1.405       .  A
C1745      C1750   1.405       .  A
C1746      C1747   1.399   1_655  A
C1746      H1755   1.083       .  S
C1747      C1748   1.402       .  A
C1747      H1756   1.084       .  S
C1748      C1754   1.410       .  A
C1748      C1749   1.415   1_455  A
C1749      C1751   1.401       .  A
C1749      C1750   1.410       .  A
C1750      H1757   1.084       .  S
C1751      C1752   1.399   1_655  A
C1751      H1758   1.084       .  S
C1752      C1753   1.409       .  A
C1752      H1759   1.083       .  S
C1753      C1754   1.408       .  A
C1754      H1760   1.084       .  S
C1761      C1762   1.403   1_455  A
C1761      C1766   1.412       .  A
C1762      C1763   1.401       .  A
C1762      H1771   1.083       .  S
C1763      C1764   1.406       .  A
C1763      H1772   1.084       .  S
C1764      C1770   1.401       .  A
C1764      C1765   1.409   1_655  A
C1765      C1767   1.404       .  A
C1765      C1766   1.397       .  A
C1766      H1773   1.085       .  S
C1767      C1768   1.397       .  A
C1767      H1774   1.084       .  S
C1768      C1769   1.403   1_455  A
C1768      H1775   1.083       .  S
C1769      C1770   1.413       .  A
C1770      H1776   1.085       .  S
C1777      C1778   1.406       .  A
C1777      C1782   1.406       .  A
C1778      C1779   1.399       .  A
C1778      H1787   1.083       .  S
C1779      C1780   1.403       .  A
C1779      H1788   1.084       .  S
C1780      C1786   1.406       .  A
C1780      C1781   1.413       .  A
C1781      C1783   1.401       .  A
C1781      C1782   1.402       .  A
C1782      H1789   1.084       .  S
C1783      C1784   1.395       .  A
C1783      H1790   1.084       .  S
C1784      C1785   1.406       .  A
C1784      H1791   1.083       .  S
C1785      C1786   1.407       .  A
C1786      H1792   1.084       .  S
C1793      C1794   1.407       .  A
C1793      C1798   1.406       .  A
C1794      C1795   1.395       .  A
C1794      H1803   1.083       .  S
C1795      C1796   1.399       .  A
C1795      H1804   1.084       .  S
C1796      C1802   1.403       .  A
C1796      C1797   1.415       .  A
C1797      C1799   1.401       .  A
C1797      C1798   1.405       .  A
C1798      H1805   1.084       .  S
C1799      C1800   1.397       .  A
C1799      H1806   1.084       .  S
C1800      C1801   1.407       .  A
C1800      H1807   1.083       .  S
C1801      C1802   1.404       .  A
C1802      H1808   1.084       .  S
C1809      C1810   1.403       .  A
C1809      C1814   1.404       .  A
C1810      C1811   1.393       .  A
C1810      H1819   1.083       .  S
C1811      C1812   1.401       .  A
C1811      H1820   1.083       .  S
C1812      C1818   1.392       .  A
C1812      C1813   1.411       .  A
C1813      C1815   1.400       .  A
C1813      C1814   1.390       .  A
C1814      H1821   1.085       .  S
C1815      C1816   1.391       .  A
C1815      H1822   1.084       .  S
C1816      C1817   1.403       .  A
C1816      H1823   1.083       .  S
C1817      C1818   1.404       .  A
C1818      H1824   1.084       .  S
C1825      C1826   1.407       .  A
C1825      C1830   1.408       .  A
C1826      C1827   1.402       .  A
C1826      H1835   1.083       .  S
C1827      C1828   1.404       .  A
C1827      H1836   1.083       .  S
C1828      C1834   1.412       .  A
C1828      C1829   1.414       .  A
C1829      C1831   1.401       .  A
C1829      C1830   1.408       .  A
C1830      H1837   1.084       .  S
C1831      C1832   1.398       .  A
C1831      H1838   1.083       .  S
C1832      C1833   1.408       .  A
C1832      H1839   1.083       .  S
C1833      C1834   1.411       .  A
C1834      H1840   1.084       .  S
C1841      C1842   1.407       .  A
C1841      C1846   1.403       .  A
C1842      C1843   1.399       .  A
C1842      H1851   1.083       .  S
C1843      C1844   1.402       .  A
C1843      H1852   1.084       .  S
C1844      C1850   1.411       .  A
C1844      C1845   1.416       .  A
C1845      C1847   1.399       .  A
C1845      C1846   1.408       .  A
C1846      H1853   1.085       .  S
C1847      C1848   1.396       .  A
C1847      H1854   1.084       .  S
C1848      C1849   1.410       .  A
C1848      H1855   1.083       .  S
C1849      C1850   1.408       .  A
C1850      H1856   1.084       .  S
C1857      C1858   1.405       .  A
C1857      C1862   1.403       .  A
C1858      C1859   1.396       .  A
C1858      H1867   1.083       .  S
C1859      C1860   1.401       .  A
C1859      H1868   1.084       .  S
C1860      C1866   1.401       .  A
C1860      C1861   1.414       .  A
C1861      C1863   1.400       .  A
C1861      C1862   1.400       .  A
C1862      H1869   1.084       .  S
C1863      C1864   1.395       .  A
C1863      H1870   1.084       .  S
C1864      C1865   1.406       .  A
C1864      H1871   1.083       .  S
C1865      C1866   1.406       .  A
C1866      H1872   1.084       .  S
C1873      C1874   1.408       .  A
C1873      C1878   1.405       .  A
C1874      C1875   1.394       .  A
C1874      H1883   1.083       .  S
C1875      C1876   1.399       .  A
C1875      H1884   1.084       .  S
C1876      C1882   1.402       .  A
C1876      C1877   1.415       .  A
C1877      C1879   1.400       .  A
C1877      C1878   1.405       .  A
C1878      H1885   1.084       .  S
C1879      C1880   1.396       .  A
C1879      H1886   1.084       .  S
C1880      C1881   1.408       .  A
C1880      H1887   1.083       .  S
C1881      C1882   1.404       .  A
C1882      H1888   1.084       .  S
C1889      C1890   1.402       .  A
C1889      C1894   1.411       .  A
C1890      C1891   1.401       .  A
C1890      H1899   1.083       .  S
C1891      C1892   1.407       .  A
C1891      H1900   1.083       .  S
C1892      C1898   1.403       .  A
C1892      C1893   1.410       .  A
C1893      C1895   1.406       .  A
C1893      C1894   1.402       .  A
C1894      H1901   1.084       .  S
C1895      C1896   1.400       .  A
C1895      H1902   1.083       .  S
C1896      C1897   1.403       .  A
C1896      H1903   1.083       .  S
C1897      C1898   1.412       .  A
C1898      H1904   1.084       .  S
C1905      C1906   1.407   1_455  A
C1905      C1910   1.408       .  A
C1906      C1907   1.395       .  A
C1906      H1915   1.083       .  S
C1907      C1908   1.399       .  A
C1907      H1916   1.084       .  S
C1908      C1914   1.405       .  A
C1908      C1909   1.415   1_655  A
C1909      C1911   1.403       .  A
C1909      C1910   1.412       .  A
C1910      H1917   1.084       .  S
C1911      C1912   1.402   1_455  A
C1911      H1918   1.084       .  S
C1912      C1913   1.409       .  A
C1912      H1919   1.083       .  S
C1913      C1914   1.406       .  A
C1914      H1920   1.084       .  S
C1921      C1922   1.407       .  A
C1921      C1926   1.406       .  A
C1922      C1923   1.403       .  A
C1922      H1931   1.083       .  S
C1923      C1924   1.405       .  A
C1923      H1932   1.084       .  S
C1924      C1930   1.408       .  A
C1924      C1925   1.413       .  A
C1925      C1927   1.400       .  A
C1925      C1926   1.399       .  A
C1926      H1933   1.084       .  S
C1927      C1928   1.393       .  A
C1927      H1934   1.084       .  S
C1928      C1929   1.404       .  A
C1928      H1935   1.083       .  S
C1929      C1930   1.409       .  A
C1930      H1936   1.084       .  S
C1937      C1938   1.408       .  A
C1937      C1942   1.410   1_455  A
C1938      C1939   1.397       .  A
C1938      H1947   1.083       .  S
C1939      C1940   1.400   1_455  A
C1939      H1948   1.083       .  S
C1940      C1946   1.407       .  A
C1940      C1941   1.414       .  A
C1941      C1943   1.404       .  A
C1941      C1942   1.412       .  A
C1942      H1949   1.083   1_565  S
C1943      C1944   1.402       .  A
C1943      H1950   1.083       .  S
C1944      C1945   1.407       .  A
C1944      H1951   1.083       .  S
C1945      C1946   1.407       .  A
C1946      H1952   1.084       .  S
C1953      C1954   1.403   1_656  A
C1953      C1958   1.408       .  A
C1954      C1955   1.391       .  A
C1954      H1963   1.083       .  S
C1955      C1956   1.400   1_564  A
C1955      H1964   1.084       .  S
C1956      C1962   1.392       .  A
C1956      C1957   1.411   1_445  A
C1957      C1959   1.404   1_565  A
C1957      C1958   1.398       .  A
C1958      H1965   1.084       .  S
C1959      C1960   1.398       .  A
C1959      H1966   1.083       .  S
C1960      C1961   1.404   1_655  A
C1960      H1967   1.083       .  S
C1961      C1962   1.404       .  A
C1962      H1968   1.085       .  S
C1969      C1970   1.406   1_655  A
C1969      C1974   1.404       .  A
C1970      C1971   1.400       .  A
C1970      H1979   1.083       .  S
C1971      C1972   1.402       .  A
C1971      H1980   1.083       .  S
C1972      C1978   1.411       .  A
C1972      C1973   1.416       .  A
C1973      C1975   1.400       .  A
C1973      C1974   1.409   1_455  A
C1974      H1981   1.084       .  S
C1975      C1976   1.397       .  A
C1975      H1982   1.084       .  S
C1976      C1977   1.409       .  A
C1976      H1983   1.083       .  S
C1977      C1978   1.408       .  A
C1978      H1984   1.084       .  S
C1985      C1986   1.405       .  A
C1985      C1990   1.406       .  A
C1986      C1987   1.394       .  A
C1986      H1995   1.083       .  S
C1987      C1988   1.400       .  A
C1987      H1996   1.083       .  S
C1988      C1994   1.401       .  A
C1988      C1989   1.414       .  A
C1989      C1991   1.402       .  A
C1989      C1990   1.404       .  A
C1990      H1997   1.084       .  S
C1991      C1992   1.398       .  A
C1991      H1998   1.083       .  S
C1992      C1993   1.407       .  A
C1992      H1999   1.083       .  S
C1993      C1994   1.405       .  A
C1994      H2000   1.084       .  S
C2001      C2002   1.406       .  A
C2001      C2006   1.406       .  A
C2002      C2003   1.400       .  A
C2002      H2011   1.083       .  S
C2003      C2004   1.403       .  A
C2003      H2012   1.083       .  S
C2004      C2010   1.410       .  A
C2004      C2005   1.414       .  A
C2005      C2007   1.402       .  A
C2005      C2006   1.408       .  A
C2006      H2013   1.084       .  S
C2007      C2008   1.399       .  A
C2007      H2014   1.083       .  S
C2008      C2009   1.407       .  A
C2008      H2015   1.083       .  S
C2009      C2010   1.410       .  A
C2010      H2016   1.084   1_545  S
C2017      C2018   1.402       .  A
C2017      C2022   1.411       .  A
C2018      C2019   1.398       .  A
C2018      H2027   1.083       .  S
C2019      C2020   1.404       .  A
C2019      H2028   1.084       .  S
C2020      C2026   1.402       .  A
C2020      C2021   1.412       .  A
C2021      C2023   1.407       .  A
C2021      C2022   1.408       .  A
C2022      H2029   1.084       .  S
C2023      C2024   1.404       .  A
C2023      H2030   1.083       .  S
C2024      C2025   1.405       .  A
C2024      H2031   1.083       .  S
C2025      C2026   1.411       .  A
C2026      H2032   1.084       .  S
C2033      C2034   1.409       .  A
C2033      C2038   1.408       .  A
C2034      C2035   1.397       .  A
C2034      H2043   1.083       .  S
C2035      C2036   1.400       .  A
C2035      H2044   1.084       .  S
C2036      C2042   1.408       .  A
C2036      C2037   1.415       .  A
C2037      C2039   1.402       .  A
C2037      C2038   1.409       .  A
C2038      H2045   1.084       .  S
C2039      C2040   1.399       .  A
C2039      H2046   1.084       .  S
C2040      C2041   1.406       .  A
C2040      H2047   1.083       .  S
C2041      C2042   1.404       .  A
C2042      H2048   1.085       .  S
C2049      C2050   1.404       .  A
C2049      C2054   1.410   1_556  A
C2050      C2051   1.394       .  A
C2050      H2059   1.083       .  S
C2051      C2052   1.402       .  A
C2051      H2060   1.084       .  S
C2052      C2058   1.395       .  A
C2052      C2053   1.410   1_556  A
C2053      C2055   1.405       .  A
C2053      C2054   1.400       .  A
C2054      H2061   1.085       .  S
C2055      C2056   1.400       .  A
C2055      H2062   1.084       .  S
C2056      C2057   1.404   1_554  A
C2056      H2063   1.083       .  S
C2057      C2058   1.409       .  A
C2058      H2064   1.085       .  S
C2065      C2066   1.406       .  A
C2065      C2070   1.408       .  A
C2066      C2067   1.396       .  A
C2066      H2075   1.083       .  S
C2067      C2068   1.401       .  A
C2067      H2076   1.083       .  S
C2068      C2074   1.404       .  A
C2068      C2069   1.413       .  A
C2069      C2071   1.403       .  A
C2069      C2070   1.408       .  A
C2070      H2077   1.084       .  S
C2071      C2072   1.400       .  A
C2071      H2078   1.083       .  S
C2072      C2073   1.407       .  A
C2072      H2079   1.083       .  S
C2073      C2074   1.407       .  A
C2074      H2080   1.084       .  S
C2081      C2082   1.408   1_655  A
C2081      C2086   1.409       .  A
C2082      C2083   1.398       .  A
C2082      H2091   1.083   1_545  S
C2083      C2084   1.401       .  A
C2083      H2092   1.084       .  S
C2084      C2090   1.409       .  A
C2084      C2085   1.414   1_455  A
C2085      C2087   1.403       .  A
C2085      C2086   1.412       .  A
C2086      H2093   1.084       .  S
C2087      C2088   1.401       .  A
C2087      H2094   1.084       .  S
C2088      C2089   1.408   1_655  A
C2088      H2095   1.083       .  S
C2089      C2090   1.409       .  A
C2090      H2096   1.084       .  S
C2097      C2098   1.407       .  A
C2097      C2102   1.408       .  A
C2098      C2099   1.397       .  A
C2098      H2107   1.083       .  S
C2099      C2100   1.401       .  A
C2099      H2108   1.084       .  S
C2100      C2106   1.405       .  A
C2100      C2101   1.414       .  A
C2101      C2103   1.403       .  A
C2101      C2102   1.407       .  A
C2102      H2109   1.084       .  S
C2103      C2104   1.399       .  A
C2103      H2110   1.084       .  S
C2104      C2105   1.407       .  A
C2104      H2111   1.083       .  S
C2105      C2106   1.406       .  A
C2106      H2112   1.085       .  S
C2113      C2114   1.405       .  A
C2113      C2118   1.413       .  A
C2114      C2115   1.402       .  A
C2114      H2123   1.083       .  S
C2115      C2116   1.405       .  A
C2115      H2124   1.084       .  S
C2116      C2122   1.410       .  A
C2116      C2117   1.412       .  A
C2117      C2119   1.406   1_655  A
C2117      C2118   1.412       .  A
C2118      H2125   1.085       .  S
C2119      C2120   1.404       .  A
C2119      H2126   1.084       .  S
C2120      C2121   1.407       .  A
C2120      H2127   1.083       .  S
C2121      C2122   1.413   1_455  A
C2122      H2128   1.084       .  S
C2129      C2130   1.403   1_455  A
C2129      C2134   1.409       .  A
C2130      C2131   1.396       .  A
C2130      H2139   1.083       .  S
C2131      C2132   1.403       .  A
C2131      H2140   1.084       .  S
C2132      C2138   1.396       .  A
C2132      C2133   1.410   1_655  A
C2133      C2135   1.403       .  A
C2133      C2134   1.395       .  A
C2134      H2141   1.085       .  S
C2135      C2136   1.396       .  A
C2135      H2142   1.084       .  S
C2136      C2137   1.403   1_455  A
C2136      H2143   1.083       .  S
C2137      C2138   1.408       .  A
C2138      H2144   1.085       .  S
C2145      C2146   1.405       .  A
C2145      C2150   1.406       .  A
C2146      C2147   1.391       .  A
C2146      H2155   1.083       .  S
C2147      C2148   1.398       .  A
C2147      H2156   1.084       .  S
C2148      C2154   1.399       .  A
C2148      C2149   1.415       .  A
C2149      C2151   1.403       .  A
C2149      C2150   1.407       .  A
C2150      H2157   1.084       .  S
C2151      C2152   1.399       .  A
C2151      H2158   1.083       .  S
C2152      C2153   1.407       .  A
C2152      H2159   1.083       .  S
C2153      C2154   1.402       .  A
C2154      H2160   1.084       .  S
C2161      C2162   1.406       .  A
C2161      C2166   1.410       .  A
C2162      C2163   1.401       .  A
C2162      H2171   1.083       .  S
C2163      C2164   1.404       .  A
C2163      H2172   1.083       .  S
C2164      C2170   1.412       .  A
C2164      C2165   1.414       .  A
C2165      C2167   1.403       .  A
C2165      C2166   1.410       .  A
C2166      H2173   1.084       .  S
C2167      C2168   1.400       .  A
C2167      H2174   1.083       .  S
C2168      C2169   1.408       .  A
C2168      H2175   1.083       .  S
C2169      C2170   1.410       .  A
C2170      H2176   1.084       .  S
C2177      C2178   1.403       .  A
C2177      C2182   1.407       .  A
C2178      C2179   1.398       .  A
C2178      H2187   1.083       .  S
C2179      C2180   1.405   1_545  A
C2179      H2188   1.084       .  S
C2180      C2186   1.396       .  A
C2180      C2181   1.410       .  A
C2181      C2183   1.401       .  A
C2181      C2182   1.389   1_565  A
C2182      H2189   1.085       .  S
C2183      C2184   1.391       .  A
C2183      H2190   1.084       .  S
C2184      C2185   1.403       .  A
C2184      H2191   1.083       .  S
C2185      C2186   1.409       .  A
C2186      H2192   1.085       .  S
C2193      C2194   1.406       .  A
C2193      C2198   1.404       .  A
C2194      C2195   1.397       .  A
C2194      H2203   1.083       .  S
C2195      C2196   1.402       .  A
C2195      H2204   1.084       .  S
C2196      C2202   1.404       .  A
C2196      C2197   1.414       .  A
C2197      C2199   1.399       .  A
C2197      C2198   1.400       .  A
C2198      H2205   1.085       .  S
C2199      C2200   1.393       .  A
C2199      H2206   1.084       .  S
C2200      C2201   1.407       .  A
C2200      H2207   1.083       .  S
C2201      C2202   1.406       .  A
C2202      H2208   1.084       .  S
C2209      C2210   1.404       .  A
C2209      C2214   1.412       .  A
C2210      C2211   1.402       .  A
C2210      H2219   1.083       .  S
C2211      C2212   1.406       .  A
C2211      H2220   1.084       .  S
C2212      C2218   1.408       .  A
C2212      C2213   1.412       .  A
C2213      C2215   1.406       .  A
C2213      C2214   1.408       .  A
C2214      H2221   1.084       .  S
C2215      C2216   1.403       .  A
C2215      H2222   1.084       .  S
C2216      C2217   1.405       .  A
C2216      H2223   1.083       .  S
C2217      C2218   1.412       .  A
C2218      H2224   1.084       .  S
C2225      C2226   1.407       .  A
C2225      C2230   1.411       .  A
C2226      C2227   1.398       .  A
C2226      H2235   1.083       .  S
C2227      C2228   1.401       .  A
C2227      H2236   1.083       .  S
C2228      C2234   1.407       .  A
C2228      C2229   1.414       .  A
C2229      C2231   1.405       .  A
C2229      C2230   1.412       .  A
C2230      H2237   1.084       .  S
C2231      C2232   1.402       .  A
C2231      H2238   1.083       .  S
C2232      C2233   1.407       .  A
C2232      H2239   1.083       .  S
C2233      C2234   1.408       .  A
C2234      H2240   1.084       .  S
