geometry optimzed in LAMMPS
_audit_creation_date              2020-12-01 
_audit_creation_method            'lammps2cif' 
_symmetry_space_group_name_H-M    'P1' 
_symmetry_Int_Tables_number       1 
_symmetry_cell_setting            triclinic 
loop_ 
_symmetry_equiv_pos_as_xyz 
  x,y,z 
_cell_length_a                    26.3369132 
_cell_length_b                    46.918545510029155 
_cell_length_c                    56.39541614716711 
_cell_angle_alpha                 89.99938266765571 
_cell_angle_beta                  90.00127181570018 
_cell_angle_gamma                 90.00006386748004 
loop_ 
_atom_site_label 
_atom_site_type_symbol 
_atom_site_fract_x 
_atom_site_fract_y 
_atom_site_fract_z 
_atom_site_charge 
O1          O  0.87274967  0.08489985  0.48070660    -0.80100
C2          C  0.04965106  0.08078635  0.42459932     0.99300
O3          O  0.01111552  0.06521894  0.42122410    -0.69200
O4          O  0.99536485  0.04260533  0.46308311    -0.72800
Al5        Al  0.95210156  0.06098988  0.44147179     1.49000
C6          C  0.98511288  0.04089717  0.48482684     0.94500
O7          O  0.00377364  0.11183233  0.49619362    -0.79000
O8          O  0.92451787  0.14622366  0.44507236    -0.72600
Al9        Al  0.93962117  0.09817748  0.48633982     1.90100
O10         O  0.01606535  0.14183656  0.46692107    -0.71600
O11         O  0.95312294  0.11363638  0.40969728    -0.71500
O12         O  0.04513029  0.10486417  0.43422055    -0.77100
O13         O  0.90705480  0.07614513  0.41870882    -0.75300
O14         O  0.95813945  0.09449763  0.45611907    -1.11500
O15         O  0.89378734  0.04809535  0.45893962    -0.70700
C16         C  0.86462114  0.05983210  0.47372632     1.00100
C17         C  0.02397544  0.13405298  0.48805014     0.96400
Al18       Al  0.98299561  0.12410125  0.44014228     1.55600
O19         O  0.96143995  0.06051476  0.49555898    -0.75300
C20         C  0.91656145  0.09684407  0.40525172     1.00600
C21         C  0.90668533  0.15231537  0.46514313     0.95500
O22         O  0.91386559  0.13646347  0.48297838    -0.80600
O23         O  0.87031835  0.08450957  0.27112818    -0.80100
C24         C  0.69329601  0.08046806  0.32716385     0.99300
O25         O  0.73186907  0.06494751  0.33061081    -0.69200
O26         O  0.74774941  0.04221950  0.28881111    -0.72800
Al27       Al  0.79094656  0.06068880  0.31039227     1.49000
C28         C  0.75798712  0.04047006  0.26706884     0.94500
O29         O  0.73929895  0.11138675  0.25554776    -0.79000
O30         O  0.81836413  0.14590742  0.30666995    -0.72600
Al31       Al  0.80344078  0.09776413  0.26545877     1.90100
O32         O  0.72690647  0.14144918  0.28476442    -0.71600
O33         O  0.78968519  0.11339785  0.34207195    -0.71500
O34         O  0.69778850  0.10451627  0.31748832    -0.77100
O35         O  0.83593481  0.07595067  0.33313725    -0.75300
O36         O  0.78486661  0.09414987  0.29567571    -1.11500
O37         O  0.84931731  0.04775726  0.29295855    -0.70700
C38         C  0.87847116  0.05945874  0.27814402     1.00100
C39         C  0.71905975  0.13362099  0.26364347     0.96400
Al40       Al  0.75990664  0.12377652  0.31158818     1.55600
O41         O  0.78163854  0.06007083  0.25630108    -0.75300
C42         C  0.82632298  0.09667301  0.34655494     1.00600
C43         C  0.83628827  0.15195682  0.28660894     0.95500
O44         O  0.82918313  0.13606922  0.26878554    -0.80600
O45         O  0.57937689  0.36908722  0.01886881    -0.80100
C46         C  0.44345231  0.42471566  0.07721471     0.99300
O47         O  0.44801698  0.40063395  0.06760496    -0.69200
O48         O  0.47713180  0.36367922  0.03490086    -0.72800
Al49       Al  0.51017539  0.38141147  0.06169102     1.49000
C50         C  0.46925165  0.37145847  0.01376806     0.94500
O51         O  0.53171663  0.44502755  0.00628541    -0.79000
O52         O  0.59933409  0.45746618  0.04292517    -0.72600
Al53       Al  0.55358188  0.40736605  0.01550910     1.90100
O54         O  0.49775520  0.46293397  0.03875327    -0.71600
O55         O  0.58604388  0.42939275  0.08315926    -0.71500
O56         O  0.48197019  0.44029068  0.08060850    -0.77100
O57         O  0.54003272  0.39187090  0.09214625    -0.75300
O58         O  0.53502124  0.41103150  0.04572530    -1.11500
O59         O  0.56866728  0.35928764  0.05676323    -0.70700
C60         C  0.58651946  0.35321081  0.03669240     1.00100
C61         C  0.50800246  0.46463946  0.01700714     0.96400
Al62       Al  0.54100849  0.44454326  0.06037922     1.55600
O63         O  0.48946164  0.39368093  0.00562985    -0.75300
C64         C  0.57657441  0.40867453  0.09660375     1.00600
C65         C  0.62851895  0.44574246  0.02813802     0.95500
O66         O  0.62043012  0.42066800  0.02116570    -0.80600
O67         O  0.66467553  0.36901550  0.23291888    -0.80100
C68         C  0.80028006  0.42475403  0.17450713     0.99300
O69         O  0.79581943  0.40067046  0.18412344    -0.69200
O70         O  0.76685917  0.36364221  0.21680375    -0.72800
Al71       Al  0.73371333  0.38141213  0.19005392     1.49000
C72         C  0.77482043  0.37141158  0.23793255     0.94500
O73         O  0.71241881  0.44495910  0.24550249    -0.79000
O74         O  0.64460050  0.45742922  0.20897302    -0.72600
Al75       Al  0.69049037  0.40730410  0.23629278     1.90100
O76         O  0.74621320  0.46286021  0.21299002    -0.71600
O77         O  0.65761534  0.42935923  0.16871480    -0.71500
O78         O  0.76169573  0.44027465  0.17110850    -0.77100
O79         O  0.70373001  0.39190858  0.15963056    -0.75300
O80         O  0.70889258  0.41099776  0.20606124    -1.11500
O81         O  0.67526633  0.35928590  0.19500077    -0.70700
C82         C  0.65746740  0.35317682  0.21507353     1.00100
C83         C  0.73608971  0.46456310  0.23474630     0.96400
Al84       Al  0.70280231  0.44451007  0.19142836     1.55600
O85         O  0.75465660  0.39363123  0.24609083    -0.75300
C86         C  0.66709252  0.40867331  0.15523569     1.00600
C87         C  0.61548379  0.44569277  0.22378219     0.95500
O88         O  0.62360808  0.42061214  0.23073167    -0.80600
O89         O  0.36965624  0.08492435  0.77114530    -0.80100
C90         C  0.19284998  0.08089555  0.82726513     0.99300
O91         O  0.23136741  0.06532367  0.83067208    -0.69200
O92         O  0.24706756  0.04263733  0.78883916    -0.72800
Al93       Al  0.29036828  0.06105283  0.81042420     1.49000
C94         C  0.25728712  0.04089351  0.76709449     0.94500
O95         O  0.23859583  0.11182529  0.75568716    -0.79000
O96         O  0.31805639  0.14628295  0.80673034    -0.72600
Al97       Al  0.30278038  0.09818367  0.76551961     1.90100
O98         O  0.22643754  0.14189156  0.78492973    -0.71600
O99         O  0.28952269  0.11375423  0.84216858    -0.71500
O100        O  0.19742237  0.10498458  0.81767197    -0.77100
O101        O  0.33545885  0.07621350  0.83316666    -0.75300
O102        O  0.28433840  0.09454862  0.79575336    -1.11500
O103        O  0.34866621  0.04813984  0.79295043    -0.70700
C104        C  0.37780639  0.05986727  0.77814536     1.00100
C105        C  0.21843488  0.13406691  0.76381737     0.96400
Al106      Al  0.25956545  0.12418693  0.81171573     1.55600
O107        O  0.28095368  0.06049778  0.75634018    -0.75300
C108        C  0.32606086  0.09693905  0.84661024     1.00600
C109        C  0.33580457  0.15234993  0.78663778     0.95500
O110        O  0.32854122  0.13647709  0.76882312    -0.80600
O111        O  0.37359607  0.08454409  0.98062233    -0.80100
C112        C  0.55018456  0.08043887  0.92435638     0.99300
O113        O  0.51158744  0.06492888  0.92094026    -0.69200
O114        O  0.49598739  0.04220153  0.96277615    -0.72800
Al115      Al  0.45265131  0.06068531  0.94124095     1.49000
C116        C  0.48593396  0.04048437  0.98454173     0.94500
O117        O  0.50472468  0.11142401  0.99597033    -0.79000
O118        O  0.42525151  0.14591037  0.94496420    -0.72600
Al119      Al  0.44050656  0.09779678  0.98617671     1.90100
O120        O  0.51687390  0.14147348  0.96672148    -0.71600
O121        O  0.45363954  0.11338824  0.90952667    -0.71500
O122        O  0.54573609  0.10451594  0.93398301    -0.77100
O123        O  0.40748557  0.07594087  0.91855280    -0.75300
O124        O  0.45884261  0.09415913  0.95593107    -1.11500
O125        O  0.39441946  0.04778273  0.95876316    -0.70700
C126        C  0.36538808  0.05949453  0.97362112     1.00100
C127        C  0.52488709  0.13365820  0.98783272     0.96400
Al128      Al  0.48366893  0.12377965  0.93996089     1.55600
O129        O  0.46237524  0.06010741  0.99532636    -0.75300
C130        C  0.41693249  0.09667847  0.90512369     1.00600
C131        C  0.40748626  0.15197376  0.96505266     0.95500
O132        O  0.41473793  0.13610087  0.98287258    -0.80600
O133        O  0.16389185  0.36945090  0.73292792    -0.80100
C134        C  0.29979439  0.42501856  0.67453665     0.99300
O135        O  0.29527017  0.40095364  0.68417855    -0.69200
O136        O  0.26617511  0.36402969  0.71690350    -0.72800
Al137      Al  0.23312914  0.38173013  0.69010353     1.49000
C138        C  0.27404856  0.37182490  0.73803225     0.94500
O139        O  0.21160710  0.44540597  0.74545000    -0.79000
O140        O  0.14401730  0.45780761  0.70880487    -0.72600
Al141      Al  0.18971234  0.40773250  0.73626322     1.90100
O142        O  0.24558561  0.46325643  0.71296110    -0.71600
O143        O  0.15722273  0.42967454  0.66862403    -0.71500
O144        O  0.26126096  0.44056629  0.67111580    -0.77100
O145        O  0.20325582  0.39215660  0.65964589    -0.75300
O146        O  0.20828070  0.41136171  0.70604672    -1.11500
O147        O  0.17465288  0.35961798  0.69504212    -0.70700
C148        C  0.15676132  0.35356531  0.71510818     1.00100
C149        C  0.23533892  0.46499654  0.73470587     0.96400
Al150      Al  0.20229196  0.44485306  0.69136301     1.55600
O151        O  0.25382019  0.39404656  0.74616119    -0.75300
C152        C  0.16668228  0.40894206  0.65519604     1.00600
C153        C  0.11479806  0.44610040  0.72358060     0.95500
O154        O  0.12287335  0.42103896  0.73058913    -0.80600
O155        O  0.07842797  0.36948694  0.51893563    -0.80100
C156        C  0.94277664  0.42510083  0.57740395     0.99300
O157        O  0.94726323  0.40102709  0.56777231    -0.69200
O158        O  0.97625677  0.36404992  0.53506072    -0.72800
Al159      Al  0.00938425  0.38178804  0.56181896     1.49000
C160        C  0.96829493  0.37183387  0.51393789     0.94500
O161        O  0.03060775  0.44542467  0.50643877    -0.79000
O162        O  0.09846707  0.45786144  0.54297776    -0.72600
Al163      Al  0.05257201  0.40776572  0.51560576     1.90100
O164        O  0.99685394  0.46329679  0.53897131    -0.71600
O165        O  0.08545249  0.42970940  0.58320031    -0.71500
O166        O  0.98135410  0.44062280  0.58082428    -0.77100
O167        O  0.03935749  0.39223798  0.59224647    -0.75300
O168        O  0.03417897  0.41140860  0.54584124    -1.11500
O169        O  0.06785060  0.35967358  0.55684001    -0.70700
C170        C  0.08565305  0.35361215  0.53675640     1.00100
C171        C  0.00695951  0.46502074  0.51721361     0.96400
Al172      Al  0.04026142  0.44490111  0.56051095     1.55600
O173        O  0.98841299  0.39407831  0.50579761    -0.75300
C174        C  0.07600449  0.40898984  0.59664789     1.00600
C175        C  0.12756850  0.44615558  0.52814455     0.95500
O176        O  0.11944628  0.42108414  0.52117304    -0.80600
O177        O  0.16474601  0.01104890  0.01876943    -0.80100
C178        C  0.30031462  0.45542788  0.07726743     0.99300
O179        O  0.29581496  0.47950993  0.06765130    -0.69200
O180        O  0.26685799  0.01648251  0.03493179    -0.72800
Al181      Al  0.23369171  0.49873970  0.06168199     1.49000
C182        C  0.27487060  0.00869325  0.01381364     0.94500
O183        O  0.21253254  0.43511307  0.00628473    -0.79000
O184        O  0.14464317  0.42268287  0.04281861    -0.72600
Al185      Al  0.19058262  0.47276880  0.01545020     1.90100
O186        O  0.24625979  0.41723852  0.03882147    -0.71600
O187        O  0.15763141  0.45079972  0.08305333    -0.71500
O188        O  0.26174487  0.43989615  0.08067569    -0.77100
O189        O  0.20367782  0.48828435  0.09210631    -0.75300
O190        O  0.20892931  0.46912063  0.04569422    -1.11500
O191        O  0.17522331  0.02084327  0.05668329    -0.70700
C192        C  0.15748374  0.02691719  0.03658966     1.00100
C193        C  0.23617173  0.41551763  0.01706241     0.96400
Al194      Al  0.20284118  0.43562567  0.06035858     1.55600
O195        O  0.25476667  0.48644788  0.00566690    -0.75300
C196        C  0.16705467  0.47151476  0.09650913     1.00600
C197        C  0.11555070  0.43439262  0.02798329     0.95500
O198        O  0.12369723  0.45945631  0.02099636    -0.80600
O199        O  0.07941536  0.01106373  0.23284584    -0.80100
C200        C  0.94335634  0.45550458  0.17451593     0.99300
O201        O  0.94792387  0.47957222  0.18414880    -0.69200
O202        O  0.97709232  0.01650423  0.21686271    -0.72800
Al203      Al  0.01009276  0.49878269  0.19005003     1.49000
C204        C  0.96924463  0.00871725  0.23799718     0.94500
O205        O  0.03166143  0.43511918  0.24541103    -0.79000
O206        O  0.09921025  0.42268873  0.20874719    -0.72600
Al207      Al  0.05356852  0.47278788  0.23620353     1.90100
O208        O  0.99763945  0.41725615  0.21293738    -0.71600
O209        O  0.08593077  0.45081189  0.16854398    -0.71500
O210        O  0.98186961  0.43993865  0.17109395    -0.77100
O211        O  0.03991191  0.48833934  0.15957852    -0.75300
O212        O  0.03494979  0.46914963  0.20599284    -1.11500
O213        O  0.06859466  0.02088528  0.19496167    -0.70700
C214        C  0.08652783  0.02694189  0.21501916     1.00100
C215        C  0.00791575  0.41552303  0.23467982     0.96400
Al216      Al  0.04089697  0.43565007  0.19131588     1.55600
O217        O  0.98948391  0.48649563  0.24612252    -0.75300
C218        C  0.07645708  0.47154044  0.15511050     1.00600
C219        C  0.12843838  0.43439187  0.22352496     0.95500
O220        O  0.12039089  0.45946319  0.23051484    -0.80600
O221        O  0.87358489  0.29560519  0.27114024    -0.80100
C222        C  0.05036443  0.29963814  0.32728664     0.99300
O223        O  0.01185606  0.31522305  0.33068123    -0.69200
O224        O  0.99616982  0.33789271  0.28883865    -0.72800
Al225      Al  0.95285269  0.31949151  0.31042672     1.49000
C226        C  0.98596348  0.33962755  0.26709166     0.94500
O227        O  0.00464970  0.26867571  0.25572148    -0.79000
O228        O  0.92511249  0.23426840  0.30677192    -0.72600
Al229      Al  0.94045951  0.28233268  0.26553590     1.90100
O230        O  0.01675640  0.23861237  0.28497021    -0.71600
O231        O  0.95365840  0.26681215  0.34220048    -0.71500
O232        O  0.04577596  0.27554319  0.31770522    -0.77100
O233        O  0.90774163  0.30435226  0.33317693    -0.75300
O234        O  0.95887743  0.28598515  0.29577169    -1.11500
O235        O  0.89456284  0.33240066  0.29293509    -0.70700
C236        C  0.86543923  0.32066934  0.27812272     1.00100
C237        C  0.02478437  0.24642810  0.26385570     0.96400
Al238      Al  0.98362175  0.25635090  0.31175107     1.55600
O239        O  0.96230833  0.32001499  0.25634125    -0.75300
C240        C  0.91712886  0.28363767  0.34663525     1.00600
C241        C  0.90738157  0.22818508  0.28667928     0.95500
O242        O  0.91467519  0.24404087  0.26885557    -0.80600
O243        O  0.86963438  0.29597835  0.48071184    -0.80100
C244        C  0.69305058  0.30016403  0.42444547     0.99300
O245        O  0.73165509  0.31566811  0.42102996    -0.69200
O246        O  0.74730764  0.33836675  0.46286847    -0.72800
Al247      Al  0.79061455  0.31988036  0.44132406     1.49000
C248        C  0.75735015  0.34006313  0.48463635     0.94500
O249        O  0.73846911  0.26912531  0.49602814    -0.79000
O250        O  0.81796420  0.23464837  0.44502206    -0.72600
Al251      Al  0.80270984  0.28273992  0.48625076     1.90100
O252        O  0.72633471  0.23909085  0.46676774    -0.71600
O253        O  0.78959485  0.26719445  0.40958506    -0.71500
O254        O  0.69749871  0.27607232  0.43404848    -0.77100
O255        O  0.83576249  0.30463041  0.41862112    -0.75300
O256        O  0.78439677  0.28639986  0.45600203    -1.11500
O257        O  0.84886237  0.33274854  0.45884878    -0.70700
C258        C  0.87786823  0.32102669  0.47371240     1.00100
C259        C  0.71830303  0.24689802  0.48787831     0.96400
Al260      Al  0.75955744  0.25679349  0.44001832     1.55600
O261        O  0.78087963  0.32042547  0.49541409    -0.75300
C262        C  0.82630009  0.28390545  0.40518084     1.00600
C263        C  0.83569362  0.22856701  0.46511503     0.95500
O264        O  0.82843907  0.24443290  0.48293789    -0.80600
O265        O  0.57857623  0.01151650  0.73290327    -0.80100
C266        C  0.44281008  0.45581147  0.67453453     0.99300
O267        O  0.44727732  0.47988421  0.68416848    -0.69200
O268        O  0.47631657  0.01689178  0.71684744    -0.72800
Al269      Al  0.50939433  0.49914036  0.69007802     1.49000
C270        C  0.46842667  0.00912070  0.73798068     0.94500
O271        O  0.53083816  0.43556720  0.74549460    -0.79000
O272        O  0.59852387  0.42309963  0.70893298    -0.72600
Al273      Al  0.55275493  0.47322811  0.73628257     1.90100
O274        O  0.49692024  0.41769027  0.71299929    -0.71600
O275        O  0.58543590  0.45119665  0.66870068    -0.71500
O276        O  0.48138570  0.44029168  0.67112208    -0.77100
O277        O  0.53930973  0.48865637  0.65964430    -0.75300
O278        O  0.53425401  0.46954793  0.70606401    -1.11500
O279        O  0.56784804  0.02126953  0.69499850    -0.70700
C280        C  0.58572873  0.02736407  0.71505806     1.00100
C281        C  0.50712386  0.41597111  0.73474746     0.96400
Al282      Al  0.54029671  0.43603949  0.69142089     1.55600
O283        O  0.48862829  0.48690567  0.74612891    -0.75300
C284        C  0.57594411  0.47189569  0.65523760     1.00600
C285        C  0.62769709  0.43483305  0.72371846     0.95500
O286        O  0.61961433  0.45991718  0.73066785    -0.80600
O287        O  0.66386083  0.01143306  0.51891650    -0.80100
C288        C  0.79967004  0.45583281  0.57733796     0.99300
O289        O  0.79512932  0.47991019  0.56771798    -0.69200
O290        O  0.76606617  0.01685084  0.53499504    -0.72800
Al291      Al  0.73298498  0.49913201  0.56177224     1.49000
C292        C  0.77397855  0.00906224  0.51386860     0.94500
O293        O  0.71154860  0.43549235  0.50638299    -0.79000
O294        O  0.64385201  0.42307150  0.54300021    -0.72600
Al295      Al  0.68966245  0.47315364  0.51558220     1.90100
O296        O  0.74543975  0.41759521  0.53887179    -0.71600
O297        O  0.65707440  0.45116818  0.58321725    -0.71500
O298        O  0.76114326  0.44026301  0.58072390    -0.77100
O299        O  0.70308294  0.48868865  0.59221324    -0.75300
O300        O  0.70816546  0.46950396  0.54580667    -1.11500
O301        O  0.67450224  0.02125437  0.55681167    -0.70700
C302        C  0.65668799  0.02731990  0.53673031     1.00100
C303        C  0.73524516  0.41588610  0.51712043     0.96400
Al304      Al  0.70214790  0.43600051  0.56046999     1.55600
O305        O  0.75379990  0.48683199  0.50573079    -0.75300
C306        C  0.66652200  0.47189543  0.59665446     1.00600
C307        C  0.61468256  0.43478928  0.52820341     0.95500
O308        O  0.62280123  0.45985333  0.52121020    -0.80600
O309        O  0.37296216  0.29601044  0.77109506    -0.80100
C310        C  0.54995258  0.30000749  0.82713717     0.99300
O311        O  0.51137918  0.31552158  0.83058621    -0.69200
O312        O  0.49557958  0.33826548  0.78878088    -0.72800
Al313      Al  0.45234966  0.31980109  0.81035335     1.49000
C314        C  0.48532663  0.34003278  0.76704035     0.94500
O315        O  0.50395025  0.26911568  0.75548924    -0.79000
O316        O  0.42490869  0.23458350  0.80660275    -0.72600
Al317      Al  0.43982604  0.28274815  0.76541131     1.90100
O318        O  0.51637182  0.23905340  0.78470545    -0.71600
O319        O  0.45355375  0.26707609  0.84201145    -0.71500
O320        O  0.54547507  0.27596624  0.81744848    -0.77100
O321        O  0.40733462  0.30453845  0.83307904    -0.75300
O322        O  0.45841344  0.28634482  0.79562760    -1.11500
O323        O  0.39401499  0.33275446  0.79292329    -0.70700
C324        C  0.36483220  0.32105846  0.77812144     1.00100
C325        C  0.52420409  0.24688421  0.76358353     0.96400
Al326      Al  0.48336033  0.25671002  0.81153240     1.55600
O327        O  0.46165274  0.32044381  0.75626652    -0.75300
C328        C  0.41691410  0.28380293  0.84648728     1.00600
C329        C  0.40695586  0.22855393  0.78654351     0.95500
O330        O  0.41405816  0.24444896  0.76872550    -0.80600
O331        O  0.37041193  0.29563837  0.98060050    -0.80100
C332        C  0.19351155  0.29975059  0.92448484     0.99300
O333        O  0.23205856  0.31530584  0.92109586    -0.69200
O334        O  0.24782517  0.33793659  0.96294249    -0.72800
Al335      Al  0.29108206  0.31953538  0.94134454     1.49000
C336        C  0.25805565  0.33964686  0.98468764     0.94500
O337        O  0.23936848  0.26872152  0.99607504    -0.79000
O338        O  0.31861605  0.23429706  0.94497035    -0.72600
Al339      Al  0.30352956  0.28236619  0.98622508     1.90100
O340        O  0.22707955  0.23870810  0.96680996    -0.71600
O341        O  0.29001354  0.26687904  0.90958661    -0.71500
O342        O  0.19802393  0.27567541  0.93411153    -0.77100
O343        O  0.33612161  0.30435722  0.91859287    -0.75300
O344        O  0.28502314  0.28603577  0.95600235    -1.11500
O345        O  0.34940701  0.33243346  0.95881564    -0.70700
C346        C  0.37855745  0.32070284  0.97361474     1.00100
C347        C  0.21916575  0.24649988  0.98793457     0.96400
Al348      Al  0.26014868  0.25642965  0.94003301     1.55600
O349        O  0.28171451  0.32003162  0.99542964    -0.75300
C350        C  0.32659684  0.28365505  0.90514206     1.00600
C351        C  0.33644445  0.22821278  0.96504469     0.95500
O352        O  0.32927434  0.24407635  0.98287372    -0.80600
O353        O  0.66470643  0.26109024  0.01876294    -0.80100
C354        C  0.80044758  0.20542860  0.07716818     0.99300
O355        O  0.79598034  0.22949935  0.06752964    -0.69200
O356        O  0.76696217  0.26649214  0.03483003    -0.72800
Al357      Al  0.73386523  0.24875319  0.06160544     1.49000
C358        C  0.77486552  0.25871375  0.01369927     0.94500
O359        O  0.71248705  0.18513893  0.00622145    -0.79000
O360        O  0.64474740  0.17269623  0.04278331    -0.72600
Al361      Al  0.69054702  0.22280417  0.01540684     1.90100
O362        O  0.74634588  0.16727532  0.03873613    -0.71600
O363        O  0.65779991  0.20083090  0.08299948    -0.71500
O364        O  0.76186479  0.18991983  0.08059887    -0.77100
O365        O  0.70392273  0.23829350  0.09204510    -0.75300
O366        O  0.70901918  0.21914767  0.04563144    -1.11500
O367        O  0.67541379  0.27087548  0.05666387    -0.70700
C368        C  0.65754148  0.27695117  0.03659855     1.00100
C369        C  0.73617796  0.16554591  0.01698468     0.96400
Al370      Al  0.70296013  0.18565108  0.06029566     1.55600
O371        O  0.75468023  0.23648791  0.00556073    -0.75300
C372        C  0.66727620  0.22153952  0.09645397     1.00600
C373        C  0.61559399  0.18441302  0.02798050     0.95500
O374        O  0.62368638  0.20948932  0.02101358    -0.80600
O375        O  0.57932518  0.26101673  0.23276626    -0.80100
C376        C  0.44344493  0.20546567  0.17435504     0.99300
O377        O  0.44800752  0.22953884  0.18397984    -0.69200
O378        O  0.47710857  0.26646614  0.21670810    -0.72800
Al379      Al  0.51016520  0.24874814  0.18991809     1.49000
C380        C  0.46919668  0.25867385  0.23783405     0.94500
O381        O  0.53159005  0.18507338  0.24528202    -0.79000
O382        O  0.59927585  0.17266528  0.20864836    -0.72600
Al383      Al  0.55349516  0.22274005  0.23609466     1.90100
O384        O  0.49769934  0.16719082  0.21278721    -0.71600
O385        O  0.58605318  0.20079344  0.16844516    -0.71500
O386        O  0.48196567  0.18989627  0.17094850    -0.77100
O387        O  0.54004539  0.23831746  0.15946473    -0.75300
O388        O  0.53497740  0.21910779  0.20587077    -1.11500
O389        O  0.56866415  0.27085249  0.19487430    -0.70700
C390        C  0.58649970  0.27690641  0.21495323     1.00100
C391        C  0.50790214  0.16546838  0.23453767     0.96400
Al392      Al  0.54097937  0.18561278  0.19119111     1.55600
O393        O  0.48936637  0.23643405  0.24596304    -0.75300
C394        C  0.57661469  0.22153063  0.15501695     1.00600
C395        C  0.62844484  0.18436613  0.22345350     0.95500
O396        O  0.62034499  0.20942838  0.23045494    -0.80600
O397        O  0.36953647  0.04596578  0.48058577    -0.80100
C398        C  0.19276456  0.05006699  0.42444442     0.99300
O399        O  0.23134039  0.06558593  0.42100938    -0.69200
O400        O  0.24704873  0.08829886  0.46283666    -0.72800
Al401      Al  0.29033419  0.06983470  0.44127294     1.49000
C402        C  0.25719888  0.09003408  0.48459047     0.94500
O403        O  0.23845320  0.01910080  0.49604023    -0.79000
O404        O  0.31778737  0.48460458  0.44498467    -0.72600
Al405      Al  0.30264427  0.03272266  0.48619824     1.90100
O406        O  0.22620607  0.48904462  0.46680341    -0.71600
O407        O  0.28932179  0.01713031  0.40955346    -0.71500
O408        O  0.19725876  0.02598812  0.43406445    -0.77100
O409        O  0.33543585  0.05460346  0.41855191    -0.75300
O410        O  0.28421005  0.03635673  0.45596421    -1.11500
O411        O  0.34862060  0.08274022  0.45875870    -0.70700
C412        C  0.37771546  0.07101920  0.47358629     1.00100
C413        C  0.21824879  0.49686873  0.48791945     0.96400
Al414      Al  0.25935237  0.00673334  0.44001141     1.55600
O415        O  0.28081859  0.07042086  0.49536120    -0.75300
C416        C  0.32597702  0.03386996  0.40512206     1.00600
C417        C  0.33559804  0.47854030  0.46506438     0.95500
O418        O  0.32839013  0.49441494  0.48288615    -0.80600
O419        O  0.37349791  0.04561470  0.27106071    -0.80100
C420        C  0.55014479  0.04977225  0.32729756     0.99300
O421        O  0.51160522  0.06534037  0.33066875    -0.69200
O422        O  0.49597642  0.08795628  0.28879731    -0.72800
Al423      Al  0.45263883  0.06955850  0.31038280     1.49000
C424        C  0.48585617  0.08963998  0.26703766     0.94500
O425        O  0.50461343  0.01868067  0.25575164    -0.79000
O426        O  0.42501902  0.48431764  0.30679042    -0.72600
Al427      Al  0.44039621  0.03233854  0.26551549     1.90100
O428        O  0.51668879  0.48867086  0.28503978    -0.71600
O429        O  0.45345412  0.01691839  0.34219976    -0.71500
O430        O  0.54560560  0.02566169  0.31773856    -0.77100
O431        O  0.40748646  0.05441910  0.33312332    -0.75300
O432        O  0.45873794  0.03603741  0.29575801    -1.11500
O433        O  0.39438826  0.08242676  0.29285391    -0.70700
C434        C  0.36532301  0.07068374  0.27802499     1.00100
C435        C  0.52474388  0.49645251  0.26392132     0.96400
Al436      Al  0.48348761  0.00643377  0.31177776     1.55600
O437        O  0.46225444  0.07000211  0.25629565    -0.75300
C438        C  0.41686544  0.03371493  0.34659593     1.00600
C439        C  0.40732782  0.47820773  0.28669503     0.95500
O440        O  0.41462641  0.49404893  0.26886292    -0.80600
O441        O  0.07848440  0.26144705  0.73287731    -0.80100
C442        C  0.94294926  0.20583703  0.67434895     0.99300
O443        O  0.94742022  0.22991134  0.68398131    -0.69200
O444        O  0.97636974  0.26687780  0.71670749    -0.72800
Al445      Al  0.00953555  0.24914578  0.68996164     1.49000
C446        C  0.96836723  0.25908490  0.73782426     0.94500
O447        O  0.03069117  0.18550853  0.74534998    -0.79000
O448        O  0.09858770  0.17308566  0.70882525    -0.72600
Al449      Al  0.05264640  0.22316640  0.73619108     1.90100
O450        O  0.99696830  0.16764204  0.71280876    -0.71600
O451        O  0.08561862  0.20122080  0.66860149    -0.71500
O452        O  0.98152646  0.19030962  0.67095110    -0.77100
O453        O  0.03955055  0.23869845  0.65954494    -0.75300
O454        O  0.03430201  0.21952517  0.70594748    -1.11500
O455        O  0.06799713  0.27125368  0.69496606    -0.70700
C456        C  0.08574539  0.27731939  0.71505948     1.00100
C457        C  0.00705024  0.16591653  0.73456836     0.96400
Al458      Al  0.04040244  0.18603470  0.69128051     1.55600
O459        O  0.98846709  0.23683893  0.74597022    -0.75300
C460        C  0.07618529  0.22193716  0.65514886     1.00600
C461        C  0.12768157  0.18479550  0.72365968     0.95500
O462        O  0.11953308  0.20985805  0.73064663    -0.80600
O463        O  0.16378667  0.26148625  0.51885506    -0.80100
C464        C  0.29978539  0.20584733  0.57717212     0.99300
O465        O  0.29527429  0.22991016  0.56752474    -0.69200
O466        O  0.26614363  0.26686236  0.53482052    -0.72800
Al467      Al  0.23314191  0.24915900  0.56163301     1.49000
C468        C  0.27394402  0.25907595  0.51368332     0.94500
O469        O  0.21142190  0.18551916  0.50627280    -0.79000
O470        O  0.14389015  0.17310987  0.54293377    -0.72600
Al471      Al  0.18957075  0.22319655  0.51548688     1.90100
O472        O  0.24545263  0.16764192  0.53874095    -0.71600
O473        O  0.15722136  0.20123127  0.58313091    -0.71500
O474        O  0.26124365  0.19030378  0.58059024    -0.77100
O475        O  0.20333313  0.23872435  0.59210113    -0.75300
O476        O  0.20821517  0.21954437  0.54569142    -1.11500
O477        O  0.17468121  0.27130021  0.55673577    -0.70700
C478        C  0.15672520  0.27736667  0.53668487     1.00100
C479        C  0.23516854  0.16591801  0.51699871     0.96400
Al480      Al  0.20222130  0.18604631  0.56036423     1.55600
O481        O  0.25366059  0.23686857  0.50555869    -0.75300
C482        C  0.16675060  0.22195076  0.59656429     1.00600
C483        C  0.11466146  0.18483260  0.52816712     0.95500
O484        O  0.12273163  0.20990536  0.52118761    -0.80600
O485        O  0.87283305  0.04600905  0.77100934    -0.80100
C486        C  0.04973914  0.05017125  0.82711436     0.99300
O487        O  0.01114144  0.06567830  0.83053191    -0.69200
O488        O  0.99536206  0.08833588  0.78868871    -0.72800
Al489      Al  0.95212751  0.06989350  0.81027465     1.49000
C490        C  0.98516169  0.09004118  0.76693826     0.94500
O491        O  0.00387122  0.01911384  0.75550678    -0.79000
O492        O  0.92479151  0.48465468  0.80663417    -0.72600
Al493      Al  0.93972032  0.03274591  0.76537861     1.90100
O494        O  0.01626765  0.48911896  0.78477262    -0.71600
O495        O  0.95336481  0.01723056  0.84200047    -0.71500
O496        O  0.04529764  0.02610949  0.81745775    -0.77100
O497        O  0.90709021  0.05464875  0.83300464    -0.75300
O498        O  0.95825262  0.03641138  0.79559651    -1.11500
O499        O  0.89381397  0.08279256  0.79280647    -0.70700
C500        C  0.86468262  0.07107132  0.77799706     1.00100
C501        C  0.02412103  0.49690561  0.76364395     0.96400
Al502      Al  0.98321208  0.00681764  0.81155229     1.55600
O503        O  0.96153371  0.07041972  0.75618660    -0.75300
C504        C  0.91666957  0.03393118  0.84643385     1.00600
C505        C  0.90688080  0.47857870  0.78657571     0.95500
O506        O  0.91398314  0.49444685  0.76874064    -0.80600
O507        O  0.87033864  0.04563098  0.98046418    -0.80100
C508        C  0.69327834  0.04971384  0.92445827     0.99300
O509        O  0.73180467  0.06528105  0.92106196    -0.69200
O510        O  0.74761949  0.08790169  0.96291117    -0.72800
Al511      Al  0.79085080  0.06952586  0.94128742     1.49000
C512        C  0.75795191  0.08963218  0.98464492     0.94500
O513        O  0.73936591  0.01870026  0.99605395    -0.79000
O514        O  0.81844835  0.48427931  0.94489119    -0.72600
Al515      Al  0.80348323  0.03235405  0.98615041     1.90100
O516        O  0.72695619  0.48868879  0.96679664    -0.71600
O517        O  0.78977265  0.01686965  0.90952882    -0.71500
O518        O  0.69781799  0.02564551  0.93409294    -0.77100
O519        O  0.83584311  0.05437244  0.91851696    -0.75300
O520        O  0.78486538  0.03601980  0.95594333    -1.11500
O521        O  0.84920755  0.08244222  0.95872629    -0.70700
C522        C  0.87843600  0.07070361  0.97348722     1.00100
C523        C  0.71911883  0.49648193  0.98793013     0.96400
Al524      Al  0.75996455  0.00640946  0.93998972     1.55600
O525        O  0.78168027  0.07002752  0.99537071    -0.75300
C526        C  0.82631460  0.03367080  0.90506793     1.00600
C527        C  0.83635593  0.47819949  0.96495010     0.95500
O528        O  0.82923701  0.49406365  0.98278347    -0.80600
O529        O  0.87356492  0.33453911  0.98047431    -0.80100
C530        C  0.05037764  0.33045394  0.92435391     0.99300
O531        O  0.01180850  0.31492773  0.92091827    -0.69200
O532        O  0.99607051  0.29221480  0.96274507    -0.72800
Al533      Al  0.95279750  0.31067589  0.94117397     1.49000
C534        C  0.98590826  0.29048604  0.98449818     0.94500
O535        O  0.00463096  0.36143125  0.99593698    -0.79000
O536        O  0.92531581  0.39590585  0.94486462    -0.72600
Al537      Al  0.94045074  0.34779605  0.98609046     1.90100
O538        O  0.01687716  0.39147905  0.96669404    -0.71600
O539        O  0.95383939  0.36337452  0.90945159    -0.71500
O540        O  0.04587053  0.35453109  0.93397437    -0.77100
O541        O  0.90770953  0.32590684  0.91845006    -0.75300
O542        O  0.95890556  0.34415681  0.95586109    -1.11500
O543        O  0.89450068  0.29776399  0.95865462    -0.70700
C544        C  0.86540154  0.30948106  0.97348241     1.00100
C545        C  0.02482899  0.38366243  0.98781098     0.96400
Al546      Al  0.98376594  0.37378040  0.93990692     1.55600
O547        O  0.96228937  0.31010334  0.99526261    -0.75300
C548        C  0.91717624  0.34664290  0.90502417     1.00600
C549        C  0.90748640  0.40197189  0.96494019     0.95500
O550        O  0.91468655  0.38609999  0.98276529    -0.80600
O551        O  0.86969466  0.33492884  0.77104172    -0.80100
C552        C  0.69302599  0.33075701  0.82724928     0.99300
O553        O  0.73157225  0.31519820  0.83061849    -0.69200
O554        O  0.74716685  0.29259105  0.78873837    -0.72800
Al555      Al  0.79050847  0.31097983  0.81032789     1.49000
C556        C  0.75732807  0.29089922  0.76698299     0.94500
O557        O  0.73860506  0.36185167  0.75567745    -0.79000
O558        O  0.81809417  0.39623109  0.80673431    -0.72600
Al559      Al  0.80280417  0.34819806  0.76546619     1.90100
O560        O  0.72644528  0.39184766  0.78496855    -0.71600
O561        O  0.78967834  0.36362245  0.84213253    -0.71500
O562        O  0.69753654  0.35486074  0.81767466    -0.77100
O563        O  0.83565221  0.32611953  0.83306042    -0.75300
O564        O  0.78441758  0.34450103  0.79570152    -1.11500
O565        O  0.84875045  0.29810708  0.79281123    -0.70700
C566        C  0.87785576  0.30985935  0.77800766     1.00100
C567        C  0.71843694  0.38406916  0.76384542     0.96400
Al568      Al  0.75964252  0.37410080  0.81171358     1.55600
O569        O  0.78095896  0.31053095  0.75624590    -0.75300
C570        C  0.82627088  0.34682737  0.84652622     1.00600
C571        C  0.83582931  0.40233358  0.78664707     0.95500
O572        O  0.82856502  0.38648798  0.76881522    -0.80600
O573        O  0.07936943  0.11905339  0.01871326    -0.80100
C574        C  0.94348002  0.17463868  0.07710056     0.99300
O575        O  0.94800830  0.15057006  0.06746471    -0.69200
O576        O  0.97710971  0.11363304  0.03474393    -0.72800
Al577      Al  0.01015708  0.13135005  0.06154060     1.49000
C578        C  0.96922420  0.12142526  0.01361477     0.94500
O579        O  0.03165756  0.19500536  0.00616817    -0.79000
O580        O  0.09927609  0.20741800  0.04280743    -0.72600
Al581      Al  0.05355160  0.15733511  0.01536786     1.90100
O582        O  0.99770022  0.21287168  0.03865412    -0.71600
O583        O  0.08605735  0.17930724  0.08301326    -0.71500
O584        O  0.98200842  0.19019722  0.08050439    -0.77100
O585        O  0.04002651  0.14179180  0.09199910    -0.75300
O586        O  0.03499817  0.16097693  0.04558653    -1.11500
O587        O  0.06864143  0.10924240  0.05660555    -0.70700
C588        C  0.08651456  0.10317713  0.03653814     1.00100
C589        C  0.00793305  0.21460177  0.01690768     0.96400
Al590      Al  0.04099114  0.19447403  0.06025892     1.55600
O591        O  0.98943817  0.14364940  0.00548331    -0.75300
C592        C  0.07658228  0.15858745  0.09645490     1.00600
C593        C  0.12847798  0.19570694  0.02802445     0.95500
O594        O  0.12039483  0.17064209  0.02102682    -0.80600
O595        O  0.16476152  0.11906634  0.23280016    -0.80100
C596        C  0.30031445  0.17475380  0.17433785     0.99300
O597        O  0.29584057  0.15067246  0.18395778    -0.69200
O598        O  0.26688883  0.11367262  0.21666171    -0.72800
Al599      Al  0.23373524  0.13141945  0.18990908     1.49000
C600        C  0.27486971  0.12145824  0.23778312     0.94500
O601        O  0.21247235  0.19501795  0.24532126    -0.79000
O602        O  0.14457359  0.20744488  0.20879132    -0.72600
Al603      Al  0.19055892  0.15735678  0.23613954     1.90100
O604        O  0.24619109  0.21291737  0.21279257    -0.71600
O605        O  0.15762916  0.17933672  0.16854002    -0.71500
O606        O  0.26173035  0.19027850  0.17093528    -0.77100
O607        O  0.20375071  0.14188130  0.15948228    -0.75300
O608        O  0.20892295  0.16102399  0.20590083    -1.11500
O609        O  0.17528465  0.10929229  0.19488539    -0.70700
C610        C  0.15753101  0.10320302  0.21497287     1.00100
C611        C  0.23610299  0.21462417  0.23455220     0.96400
Al612      Al  0.20280300  0.19452262  0.19124647     1.55600
O613        O  0.25474789  0.14369882  0.24592712    -0.75300
C614        C  0.16710883  0.15863631  0.15507649     1.00600
C615        C  0.11549988  0.19572082  0.22362914     0.95500
O616        O  0.12366071  0.17064886  0.23059093    -0.80600
O617        O  0.37040831  0.33451852  0.27102018    -0.80100
C618        C  0.19350737  0.33033145  0.32713367     0.99300
O619        O  0.23210775  0.31482381  0.33054677    -0.69200
O620        O  0.24790269  0.29217530  0.28870296    -0.72800
Al621      Al  0.29113238  0.31062007  0.31029042     1.49000
C622        C  0.25807991  0.29047742  0.26695062     0.94500
O623        O  0.23935588  0.36140397  0.25552298    -0.79000
O624        O  0.31843368  0.39586257  0.30665487    -0.72600
Al625      Al  0.30351412  0.34777645  0.26539488     1.90100
O626        O  0.22694369  0.39139620  0.28478711    -0.71600
O627        O  0.28989108  0.36328023  0.34202321    -0.71500
O628        O  0.19794628  0.35439550  0.31747987    -0.77100
O629        O  0.33617010  0.32586457  0.33302881    -0.75300
O630        O  0.28499119  0.34410430  0.29561418    -1.11500
O631        O  0.34945343  0.29773057  0.29281747    -0.70700
C632        C  0.37857228  0.30945637  0.27800455     1.00100
C633        C  0.21909155  0.38360974  0.26365643     0.96400
Al634      Al  0.26002358  0.37369379  0.31157199     1.55600
O635        O  0.28170502  0.31010147  0.25619936    -0.75300
C636        C  0.32658564  0.34657874  0.34646160     1.00600
C637        C  0.33633975  0.40194447  0.28659753     0.95500
O638        O  0.32924182  0.38607875  0.26876051    -0.80600
O639        O  0.37278651  0.33487415  0.48054651    -0.80100
C640        C  0.54991291  0.33087223  0.42457738     0.99300
O641        O  0.51141284  0.31528659  0.42117343    -0.69200
O642        O  0.49555394  0.29264885  0.46300924    -0.72800
Al643      Al  0.45233439  0.31101768  0.44137596     1.49000
C644        C  0.48518999  0.29090294  0.48473810     0.94500
O645        O  0.50372945  0.36183564  0.49616712    -0.79000
O646        O  0.42462462  0.39624907  0.44500267    -0.72600
Al647      Al  0.43962609  0.34816704  0.48624943     1.90100
O648        O  0.51611473  0.39186245  0.46691711    -0.71600
O649        O  0.45336619  0.36369031  0.40962579    -0.71500
O650        O  0.54532378  0.35493971  0.43420857    -0.77100
O651        O  0.40735522  0.32615771  0.41858716    -0.75300
O652        O  0.45826655  0.34451973  0.45604195    -1.11500
O653        O  0.39396171  0.29808188  0.45879461    -0.70700
C654        C  0.36471224  0.30980469  0.47355576     1.00100
C655        C  0.52396603  0.38406040  0.48804721     0.96400
Al656      Al  0.48314106  0.37414567  0.44010028     1.55600
O657        O  0.46144176  0.31049735  0.49546424    -0.75300
C658        C  0.41686890  0.34686553  0.40514248     1.00600
C659        C  0.40671811  0.40231796  0.46506373     0.95500
O660        O  0.41384910  0.38644946  0.48289304    -0.80600
O661        O  0.66395284  0.11950659  0.73272624    -0.80100
C662        C  0.79987241  0.17507371  0.67433417     0.99300
O663        O  0.79533557  0.15100427  0.68396864    -0.69200
O664        O  0.76623552  0.11407480  0.71669533    -0.72800
Al665      Al  0.73319064  0.13177448  0.68989819     1.49000
C666        C  0.77409656  0.12186387  0.73782581     0.94500
O667        O  0.71167182  0.19545339  0.74524303    -0.79000
O668        O  0.64402790  0.20785718  0.70860069    -0.72600
Al669      Al  0.68977668  0.15778345  0.73605750     1.90100
O670        O  0.74559893  0.21332937  0.71275295    -0.71600
O671        O  0.65728017  0.17971059  0.66841176    -0.71500
O672        O  0.76133656  0.19062437  0.67091450    -0.77100
O673        O  0.70332152  0.14219323  0.65944174    -0.75300
O674        O  0.70833585  0.16141135  0.70584001    -1.11500
O675        O  0.67471186  0.10964652  0.69484516    -0.70700
C676        C  0.65682206  0.10360585  0.71491666     1.00100
C677        C  0.73537092  0.21505633  0.73450061     0.96400
Al678      Al  0.70233103  0.19490394  0.69115451     1.55600
O679        O  0.75388815  0.14409357  0.74595105    -0.75300
C680        C  0.66674249  0.15897130  0.65499003     1.00600
C681        C  0.61484079  0.19615395  0.72339583     0.95500
O682        O  0.62293170  0.17108987  0.73039383    -0.80600
O683        O  0.57845924  0.11943424  0.51877614    -0.80100
C684        C  0.44280621  0.17505869  0.57723440     0.99300
O685        O  0.44726980  0.15099035  0.56759197    -0.69200
O686        O  0.47626181  0.11400594  0.53488809    -0.72800
Al687      Al  0.50938580  0.13175253  0.56164722     1.49000
C688        C  0.46829839  0.12178939  0.51376413     0.94500
O689        O  0.53060558  0.19537987  0.50626227    -0.79000
O690        O  0.59841539  0.20782699  0.54279745    -0.72600
Al691      Al  0.55258667  0.15771773  0.51543287     1.90100
O692        O  0.49680476  0.21322948  0.53879450    -0.71600
O693        O  0.58546419  0.17968003  0.58300825    -0.71500
O694        O  0.48138703  0.19057161  0.58065798    -0.77100
O695        O  0.53936259  0.14221618  0.59207282    -0.75300
O696        O  0.53417933  0.16136546  0.54566534    -1.11500
O697        O  0.56784845  0.10965038  0.55668385    -0.70700
C698        C  0.58567685  0.10357660  0.53661009     1.00100
C699        C  0.50693306  0.21496706  0.51703980     0.96400
Al700      Al  0.54024689  0.19485855  0.56033079     1.55600
O701        O  0.48843793  0.14402460  0.50561938    -0.75300
C702        C  0.57602084  0.15896655  0.59646225     1.00600
C703        C  0.62755105  0.19611987  0.52798335     0.95500
O704        O  0.61945299  0.17104754  0.52100655    -0.80600
C705        C  0.60736326  0.15510136  0.61721733    -0.11500
C706        C  0.63548344  0.15509961  0.63420816    -0.13100
C707        C  0.49427652  0.26454236  0.49651111    -0.11500
C708        C  0.49770460  0.24132387  0.50528548    -0.13100
C709        C  0.38578131  0.35063012  0.38429114    -0.11500
C710        C  0.35780269  0.35051792  0.36724963    -0.13100
C711        C  0.24888534  0.26414552  0.25515318    -0.11500
C712        C  0.24537923  0.24095454  0.24633716    -0.13100
C713        C  0.10778461  0.15476281  0.11726863    -0.11500
C714        C  0.13583033  0.15478533  0.13429050    -0.13100
C715        C  0.74810877  0.26457158  0.75516048    -0.11500
C716        C  0.74460304  0.24139345  0.74630592    -0.13100
C717        C  0.99513743  0.26413463  0.99628425    -0.11500
C718        C  0.99867650  0.24094037  0.00510730    -0.13100
C719        C  0.85763786  0.35063474  0.86729316    -0.11500
C720        C  0.88581910  0.35057028  0.88426892    -0.13100
C721        C  0.88153994  0.42847939  0.96762621    -0.11500
C722        C  0.86229814  0.45168744  0.96761833    -0.13100
C723        C  0.91547505  0.08788248  0.98550531    -0.11500
C724        C  0.93979060  0.10358624  0.99809592    -0.13100
C725        C  0.86173165  0.42885150  0.78394826    -0.11500
C726        C  0.88094935  0.45206465  0.78391850    -0.13100
C727        C  0.88544333  0.02998758  0.86721045    -0.11500
C728        C  0.85743661  0.02988644  0.88423773    -0.13100
C729        C  0.80347250  0.10400368  0.75335221    -0.11500
C730        C  0.82771425  0.08826835  0.76594761    -0.13100
C731        C  0.30336580  0.27690380  0.49815123    -0.11500
C732        C  0.32767718  0.29260986  0.48556033    -0.13100
C733        C  0.39273381  0.18579967  0.58262113    -0.11500
C734        C  0.34987148  0.19514995  0.58259451    -0.13100
C735        C  0.99431499  0.11638109  0.75514770    -0.11500
C736        C  0.99778135  0.13957662  0.74633826    -0.13100
C737        C  0.10750313  0.22579473  0.63438400    -0.11500
C738        C  0.13556871  0.22580444  0.61737368    -0.13100
C739        C  0.91479502  0.29268895  0.76593389    -0.11500
C740        C  0.93899881  0.27696167  0.75332490    -0.13100
C741        C  0.89286429  0.19510869  0.66893878    -0.11500
C742        C  0.84998531  0.18577100  0.66893794    -0.13100
C743        C  0.36225618  0.42846408  0.28394561    -0.11500
C744        C  0.38145090  0.45168324  0.28398634    -0.13100
C745        C  0.30423491  0.10358135  0.25329408    -0.11500
C746        C  0.32841986  0.08786171  0.26592268    -0.13100
C747        C  0.36153382  0.45203264  0.46775635    -0.11500
C748        C  0.38077125  0.42882465  0.46774206    -0.13100
C749        C  0.24440335  0.13958203  0.50519125    -0.11500
C750        C  0.24795143  0.11638657  0.49637076    -0.13100
C751        C  0.38549987  0.02991060  0.36737144    -0.11500
C752        C  0.35732923  0.02996013  0.38435572    -0.13100
C753        C  0.41466769  0.08820563  0.48564720    -0.11500
C754        C  0.43890371  0.10392264  0.49825752    -0.13100
C755        C  0.49510535  0.11596272  0.25520995    -0.11500
C756        C  0.49864176  0.13913601  0.24634820    -0.13100
C757        C  0.41554910  0.29226625  0.26594974    -0.11500
C758        C  0.43980488  0.27653823  0.25335356    -0.13100
C759        C  0.35041205  0.18548192  0.16894312    -0.11500
C760        C  0.39331367  0.19479267  0.16895195    -0.13100
C761        C  0.74884469  0.11598501  0.99642832    -0.11500
C762        C  0.74540034  0.13919655  0.00521586    -0.13100
C763        C  0.60788198  0.22539183  0.13423176    -0.11500
C764        C  0.63598131  0.22539532  0.11723012    -0.13100
C765        C  0.80424743  0.27657495  0.99817790    -0.11500
C766        C  0.82846838  0.29228726  0.98555512    -0.13100
C767        C  0.85052390  0.19468127  0.08254688    -0.11500
C768        C  0.89338593  0.18532873  0.08252110    -0.13100
C769        C  0.18974579  0.22864898  0.00343996    -0.11500
C770        C  0.16547028  0.21291389  0.01601462    -0.13100
C771        C  0.14340421  0.31043199  0.91904702    -0.11500
C772        C  0.10049788  0.31973311  0.91899936    -0.13100
C773        C  0.38575110  0.27988174  0.86729099    -0.11500
C774        C  0.35775989  0.27983408  0.88432560    -0.13100
C775        C  0.57786794  0.21336447  0.73542411    -0.11500
C776        C  0.55360391  0.22907363  0.74803073    -0.13100
C777        C  0.64292153  0.32003536  0.83261854    -0.11500
C778        C  0.60003786  0.31070817  0.83257662    -0.13100
C779        C  0.61162141  0.07706624  0.53394466    -0.11500
C780        C  0.63081383  0.05384530  0.53400642    -0.13100
C781        C  0.57767886  0.41759743  0.51617528    -0.11500
C782        C  0.55338267  0.40189101  0.50357874    -0.13100
C783        C  0.63089699  0.07709397  0.71763375    -0.11500
C784        C  0.61167466  0.05387961  0.71769730    -0.13100
C785        C  0.49792042  0.38962629  0.74652546    -0.11500
C786        C  0.49446934  0.36640741  0.75529752    -0.13100
C787        C  0.60720841  0.47573703  0.63445403    -0.11500
C788        C  0.63527716  0.47573801  0.61744485    -0.13100
C789        C  0.68895163  0.40192762  0.74836524    -0.11500
C790        C  0.66465858  0.41764364  0.73577699    -0.13100
C791        C  0.74452364  0.38956614  0.50530032    -0.11500
C792        C  0.74807731  0.36639463  0.49644070    -0.13100
C793        C  0.68880067  0.22905587  0.50336296    -0.11500
C794        C  0.66450208  0.21332790  0.51593748    -0.13100
C795        C  0.64295397  0.31092316  0.41909347    -0.11500
C796        C  0.60005031  0.32022885  0.41914682    -0.13100
C797        C  0.88583932  0.27986381  0.36743874    -0.11500
C798        C  0.85769077  0.27996602  0.38443111    -0.13100
C799        C  0.05426607  0.22858999  0.24834560    -0.11500
C800        C  0.07856054  0.21290399  0.23572480    -0.13100
C801        C  0.10051815  0.31031644  0.33263538    -0.11500
C802        C  0.14342783  0.31961384  0.33258054    -0.13100
C803        C  0.11246973  0.05345319  0.21769019    -0.11500
C804        C  0.13165912  0.07667505  0.21767522    -0.13100
C805        C  0.99516991  0.36598211  0.25530278    -0.11500
C806        C  0.99868670  0.38917950  0.24648134    -0.13100
C807        C  0.16540767  0.41717316  0.23554471    -0.11500
C808        C  0.18967097  0.40144694  0.24813593    -0.13100
C809        C  0.11242263  0.07666021  0.03385568    -0.11500
C810        C  0.13160073  0.05343647  0.03387218    -0.13100
C811        C  0.24543686  0.38918005  0.00528960    -0.11500
C812        C  0.24890388  0.36598475  0.99647994    -0.13100
C813        C  0.13573346  0.47536275  0.11728321    -0.11500
C814        C  0.10766191  0.47537592  0.13429703    -0.13100
C815        C  0.07859374  0.41719611  0.01592361    -0.11500
C816        C  0.05429818  0.40148974  0.00332598    -0.13100
C817        C  0.11158057  0.32710064  0.53404945    -0.11500
C818        C  0.13079497  0.30388499  0.53402638    -0.13100
C819        C  0.16449290  0.46335840  0.51606338    -0.11500
C820        C  0.18877338  0.47905077  0.50344438    -0.13100
C821        C  0.91477131  0.33821436  0.48580632    -0.11500
C822        C  0.93894818  0.35394917  0.49842508    -0.13100
C823        C  0.89267648  0.43583042  0.58278580    -0.11500
C824        C  0.84978511  0.44515293  0.58276039    -0.13100
C825        C  0.13083961  0.32705249  0.71779501    -0.11500
C826        C  0.11164502  0.30383395  0.71777907    -0.13100
C827        C  0.13543555  0.40509079  0.63440627    -0.11500
C828        C  0.10733181  0.40511366  0.61740866    -0.13100
C829        C  0.07779581  0.46331255  0.73557104    -0.11500
C830        C  0.05352592  0.47905932  0.74813455    -0.13100
C831        C  0.30348586  0.35398728  0.75355018    -0.11500
C832        C  0.32780199  0.33826524  0.76612499    -0.13100
C833        C  0.34988458  0.43571953  0.66913522    -0.11500
C834        C  0.39274294  0.44507477  0.66913361    -0.13100
C835        C  0.36234534  0.20169475  0.96773649    -0.11500
C836        C  0.38155927  0.17848118  0.96775469    -0.13100
C837        C  0.55436440  0.15149496  0.00333250    -0.11500
C838        C  0.57864686  0.16721170  0.01592512    -0.13100
C839        C  0.60027220  0.06969535  0.91897852    -0.11500
C840        C  0.64316720  0.06038210  0.91902062    -0.13100
C841        C  0.32847391  0.04230038  0.98570251    -0.11500
C842        C  0.30426218  0.02657116  0.99831294    -0.13100
C843        C  0.36172285  0.17885687  0.78391081    -0.11500
C844        C  0.38097198  0.20206064  0.78386905    -0.13100
C845        C  0.24457516  0.49134109  0.74649606    -0.11500
C846        C  0.24808573  0.01453903  0.75531283    -0.13100
C847        C  0.35735315  0.10073531  0.86740513    -0.11500
C848        C  0.38552078  0.10063368  0.88438742    -0.13100
C849        C  0.18895308  0.15189617  0.74830962    -0.11500
C850        C  0.16464548  0.16760115  0.73571567    -0.13100
C851        C  0.14270937  0.07020539  0.83261331    -0.11500
C852        C  0.09981270  0.06089240  0.83255900    -0.13100
C853        C  0.43903403  0.02697755  0.75349301    -0.11500
C854        C  0.41478452  0.04268517  0.76610215    -0.13100
C855        C  0.61239080  0.30342615  0.21767365    -0.11500
C856        C  0.63156828  0.32665084  0.21772777    -0.13100
C857        C  0.57853216  0.46287419  0.23585743    -0.11500
C858        C  0.55423694  0.47858815  0.24844791    -0.13100
C859        C  0.82848779  0.33784946  0.26605371    -0.11500
C860        C  0.80424028  0.35354888  0.25343325    -0.13100
C861        C  0.85035715  0.43549498  0.16911258    -0.11500
C862        C  0.89323572  0.44482799  0.16911963    -0.13100
C863        C  0.61240414  0.32668494  0.03399182    -0.11500
C864        C  0.63160060  0.30346452  0.03394101    -0.13100
C865        C  0.49521683  0.01414206  0.99633186    -0.11500
C866        C  0.49876267  0.49096293  0.00518105    -0.13100
C867        C  0.60777574  0.40485124  0.11741978    -0.11500
C868        C  0.63581755  0.40485323  0.13444353    -0.13100
C869        C  0.66547741  0.46293982  0.01608410    -0.11500
C870        C  0.68972615  0.47864472  0.00346661    -0.13100
C871        C  0.41555857  0.33788664  0.98565663    -0.11500
C872        C  0.43984016  0.35360254  0.99825180    -0.13100
C873        C  0.35042327  0.44470320  0.08264499    -0.11500
C874        C  0.39332298  0.43538934  0.08262166    -0.13100
C875        C  0.88146229  0.20167471  0.28396515    -0.11500
C876        C  0.86223442  0.17846405  0.28393504    -0.13100
C877        C  0.74883161  0.01410653  0.25531353    -0.11500
C878        C  0.74534628  0.49089573  0.24653064    -0.13100
C879        C  0.68966646  0.15143956  0.24809269    -0.11500
C880        C  0.66541070  0.16715383  0.23548680    -0.13100
C881        C  0.64318953  0.06977843  0.33259886    -0.11500
C882        C  0.60027846  0.06048150  0.33264905    -0.13100
C883        C  0.91549122  0.04225918  0.26612066    -0.11500
C884        C  0.93980871  0.02655475  0.25352562    -0.13100
C885        C  0.86157876  0.20204834  0.46782230    -0.11500
C886        C  0.88077596  0.17883101  0.46782123    -0.13100
C887        C  0.99770720  0.49136300  0.50543993    -0.11500
C888        C  0.99425133  0.01455921  0.49662651    -0.13100
C889        C  0.85744812  0.10058449  0.36737659    -0.11500
C890        C  0.88540886  0.10064133  0.38442452    -0.13100
C891        C  0.05339310  0.15190756  0.50355833    -0.11500
C892        C  0.07766742  0.16763226  0.51614569    -0.13100
C893        C  0.14265283  0.06080023  0.41909482    -0.11500
C894        C  0.09975443  0.07011154  0.41915174    -0.13100
C895        C  0.82763041  0.04264868  0.48576496    -0.11500
C896        C  0.80337225  0.02692324  0.49835722    -0.13100
O897        O  0.87274957  0.58489989  0.48070659    -0.80100
C898        C  0.04965106  0.58078668  0.42459943     0.99300
O899        O  0.01111545  0.56521892  0.42122411    -0.69200
O900        O  0.99536488  0.54260530  0.46308315    -0.72800
Al901      Al  0.95210162  0.56098988  0.44147178     1.49000
C902        C  0.98511269  0.54089737  0.48482676     0.94500
O903        O  0.00377361  0.61183233  0.49619362    -0.79000
O904        O  0.92451792  0.64622370  0.44507237    -0.72600
Al905      Al  0.93962112  0.59817743  0.48633981     1.90100
O906        O  0.01606540  0.64183654  0.46692107    -0.71600
O907        O  0.95312302  0.61363639  0.40969728    -0.71500
O908        O  0.04513025  0.60486411  0.43422050    -0.77100
O909        O  0.90705493  0.57614515  0.41870879    -0.75300
O910        O  0.95813949  0.59449757  0.45611909    -1.11500
O911        O  0.89378718  0.54809535  0.45893962    -0.70700
C912        C  0.86462117  0.55983178  0.47372618     1.00100
C913        C  0.02397540  0.63405297  0.48805020     0.96400
Al914      Al  0.98299561  0.62410122  0.44014231     1.55600
O915        O  0.96143999  0.56051471  0.49555899    -0.75300
C916        C  0.91656128  0.59684405  0.40525166     1.00600
C917        C  0.90668541  0.65231520  0.46514319     0.95500
O918        O  0.91386552  0.63646348  0.48297834    -0.80600
O919        O  0.87031845  0.58450956  0.27112819    -0.80100
C920        C  0.69329579  0.58046816  0.32716384     0.99300
O921        O  0.73186921  0.56494750  0.33061082    -0.69200
O922        O  0.74774933  0.54221957  0.28881114    -0.72800
Al923      Al  0.79094653  0.56068880  0.31039227     1.49000
C924        C  0.75798706  0.54046991  0.26706882     0.94500
O925        O  0.73929881  0.61138671  0.25554773    -0.79000
O926        O  0.81836416  0.64590735  0.30666996    -0.72600
Al927      Al  0.80344072  0.59776413  0.26545876     1.90100
O928        O  0.72690659  0.64144920  0.28476439    -0.71600
O929        O  0.78968520  0.61339782  0.34207197    -0.71500
O930        O  0.69778854  0.60451630  0.31748831    -0.77100
O931        O  0.83593485  0.57595061  0.33313722    -0.75300
O932        O  0.78486648  0.59414987  0.29567571    -1.11500
O933        O  0.84931729  0.54775726  0.29295853    -0.70700
C934        C  0.87847111  0.55945884  0.27814406     1.00100
C935        C  0.71905964  0.63362093  0.26364345     0.96400
Al936      Al  0.75990662  0.62377656  0.31158818     1.55600
O937        O  0.78163853  0.56007087  0.25630108    -0.75300
C938        C  0.82632300  0.59667312  0.34655500     1.00600
C939        C  0.83628847  0.65195677  0.28660889     0.95500
O940        O  0.82918315  0.63606923  0.26878552    -0.80600
O941        O  0.57937688  0.86908717  0.01886882    -0.80100
C942        C  0.44345232  0.92471548  0.07721466     0.99300
O943        O  0.44801677  0.90063393  0.06760499    -0.69200
O944        O  0.47713192  0.86367925  0.03490086    -0.72800
Al945      Al  0.51017534  0.88141143  0.06169100     1.49000
C946        C  0.46925141  0.87145844  0.01376795     0.94500
O947        O  0.53171659  0.94502750  0.00628540    -0.79000
O948        O  0.59933406  0.95746621  0.04292516    -0.72600
Al949      Al  0.55358185  0.90736608  0.01550910     1.90100
O950        O  0.49775509  0.96293402  0.03875321    -0.71600
O951        O  0.58604384  0.92939272  0.08315925    -0.71500
O952        O  0.48197005  0.94029063  0.08060851    -0.77100
O953        O  0.54003263  0.89187087  0.09214625    -0.75300
O954        O  0.53502125  0.91103145  0.04572530    -1.11500
O955        O  0.56866724  0.85928758  0.05676323    -0.70700
C956        C  0.58651952  0.85321100  0.03669232     1.00100
C957        C  0.50800204  0.96463963  0.01700729     0.96400
Al958      Al  0.54100840  0.94454324  0.06037924     1.55600
O959        O  0.48946163  0.89368098  0.00562983    -0.75300
C960        C  0.57657440  0.90867451  0.09660379     1.00600
C961        C  0.62851879  0.94574258  0.02813808     0.95500
O962        O  0.62043016  0.92066803  0.02116570    -0.80600
O963        O  0.66467551  0.86901545  0.23291889    -0.80100
C964        C  0.80027991  0.92475397  0.17450716     0.99300
O965        O  0.79581948  0.90067042  0.18412342    -0.69200
O966        O  0.76685911  0.86364219  0.21680373    -0.72800
Al967      Al  0.73371323  0.88141214  0.19005391     1.49000
C968        C  0.77482030  0.87141167  0.23793263     0.94500
O969        O  0.71241881  0.94495910  0.24550255    -0.79000
O970        O  0.64460046  0.95742916  0.20897298    -0.72600
Al971      Al  0.69049027  0.90730409  0.23629279     1.90100
O972        O  0.74621311  0.96286024  0.21299005    -0.71600
O973        O  0.65761535  0.92935915  0.16871476    -0.71500
O974        O  0.76169573  0.94027457  0.17110850    -0.77100
O975        O  0.70373014  0.89190853  0.15963054    -0.75300
O976        O  0.70889242  0.91099777  0.20606123    -1.11500
O977        O  0.67526626  0.85928585  0.19500076    -0.70700
C978        C  0.65746728  0.85317677  0.21507352     1.00100
C979        C  0.73608972  0.96456308  0.23474617     0.96400
Al980      Al  0.70280223  0.94451006  0.19142834     1.55600
O981        O  0.75465658  0.89363115  0.24609083    -0.75300
C982        C  0.66709207  0.90867341  0.15523566     1.00600
C983        C  0.61548365  0.94569276  0.22378219     0.95500
O984        O  0.62360795  0.92061208  0.23073165    -0.80600
O985        O  0.36965624  0.58492429  0.77114533    -0.80100
C986        C  0.19285003  0.58089540  0.82726515     0.99300
O987        O  0.23136726  0.56532367  0.83067208    -0.69200
O988        O  0.24706747  0.54263734  0.78883917    -0.72800
Al989      Al  0.29036824  0.56105279  0.81042417     1.49000
C990        C  0.25728726  0.54089348  0.76709443     0.94500
O991        O  0.23859597  0.61182533  0.75568713    -0.79000
O992        O  0.31805629  0.64628295  0.80673035    -0.72600
Al993      Al  0.30278038  0.59818367  0.76551960     1.90100
O994        O  0.22643762  0.64189155  0.78492977    -0.71600
O995        O  0.28952248  0.61375427  0.84216855    -0.71500
O996        O  0.19742231  0.60498460  0.81767195    -0.77100
O997        O  0.33545878  0.57621356  0.83316668    -0.75300
O998        O  0.28433824  0.59454862  0.79575334    -1.11500
O999        O  0.34866623  0.54813979  0.79295045    -0.70700
C1000       C  0.37780644  0.55986731  0.77814540     1.00100
C1001       C  0.21843493  0.63406691  0.76381722     0.96400
Al1002     Al  0.25956542  0.62418690  0.81171573     1.55600
O1003       O  0.28095371  0.56049779  0.75634021    -0.75300
C1004       C  0.32606135  0.59693870  0.84661023     1.00600
C1005       C  0.33580471  0.65234982  0.78663777     0.95500
O1006       O  0.32854132  0.63647705  0.76882315    -0.80600
O1007       O  0.37359608  0.58454408  0.98062231    -0.80100
C1008       C  0.55018404  0.58043878  0.92435638     0.99300
O1009       O  0.51158768  0.56492888  0.92094025    -0.69200
O1010       O  0.49598739  0.54220157  0.96277613    -0.72800
Al1011     Al  0.45265131  0.56068531  0.94124097     1.49000
C1012       C  0.48593378  0.54048441  0.98454180     0.94500
O1013       O  0.50472465  0.61142406  0.99597033    -0.79000
O1014       O  0.42525160  0.64591042  0.94496421    -0.72600
Al1015     Al  0.44050658  0.59779678  0.98617672     1.90100
O1016       O  0.51687398  0.64147348  0.96672144    -0.71600
O1017       O  0.45363963  0.61338826  0.90952672    -0.71500
O1018       O  0.54573620  0.60451593  0.93398300    -0.77100
O1019       O  0.40748562  0.57594086  0.91855278    -0.75300
O1020       O  0.45884269  0.59415916  0.95593107    -1.11500
O1021       O  0.39441945  0.54778268  0.95876319    -0.70700
C1022       C  0.36538814  0.55949450  0.97362106     1.00100
C1023       C  0.52488708  0.63365801  0.98783276     0.96400
Al1024     Al  0.48366898  0.62377966  0.93996091     1.55600
O1025       O  0.46237526  0.56010738  0.99532635    -0.75300
C1026       C  0.41693240  0.59667838  0.90512365     1.00600
C1027       C  0.40748606  0.65197369  0.96505276     0.95500
O1028       O  0.41473799  0.63610091  0.98287258    -0.80600
O1029       O  0.16389186  0.86945092  0.73292793    -0.80100
C1030       C  0.29979447  0.92501830  0.67453670     0.99300
O1031       O  0.29527025  0.90095363  0.68417851    -0.69200
O1032       O  0.26617504  0.86402967  0.71690348    -0.72800
Al1033     Al  0.23312910  0.88173011  0.69010354     1.49000
C1034       C  0.27404841  0.87182491  0.73803220     0.94500
O1035       O  0.21160723  0.94540600  0.74545003    -0.79000
O1036       O  0.14401747  0.95780760  0.70880483    -0.72600
Al1037     Al  0.18971234  0.90773248  0.73626322     1.90100
O1038       O  0.24558560  0.96325639  0.71296109    -0.71600
O1039       O  0.15722282  0.92967464  0.66862405    -0.71500
O1040       O  0.26126099  0.94056628  0.67111580    -0.77100
O1041       O  0.20325573  0.89215663  0.65964586    -0.75300
O1042       O  0.20828059  0.91136172  0.70604669    -1.11500
O1043       O  0.17465286  0.85961805  0.69504209    -0.70700
C1044       C  0.15676106  0.85356518  0.71510825     1.00100
C1045       C  0.23533877  0.96499649  0.73470592     0.96400
Al1046     Al  0.20229200  0.94485302  0.69136299     1.55600
O1047       O  0.25382016  0.89404652  0.74616116    -0.75300
C1048       C  0.16668254  0.90894176  0.65519593     1.00600
C1049       C  0.11479809  0.94610023  0.72358066     0.95500
O1050       O  0.12287337  0.92103901  0.73058911    -0.80600
O1051       O  0.07842786  0.86948700  0.51893559    -0.80100
C1052       C  0.94277689  0.92510089  0.57740397     0.99300
O1053       O  0.94726321  0.90102705  0.56777228    -0.69200
O1054       O  0.97625693  0.86404991  0.53506071    -0.72800
Al1055     Al  0.00938430  0.88178804  0.56181894     1.49000
C1056       C  0.96829477  0.87183372  0.51393775     0.94500
O1057       O  0.03060793  0.94542472  0.50643881    -0.79000
O1058       O  0.09846702  0.95786147  0.54297777    -0.72600
Al1059     Al  0.05257201  0.90776575  0.51560575     1.90100
O1060       O  0.99685391  0.96329682  0.53897135    -0.71600
O1061       O  0.08545243  0.92970941  0.58320034    -0.71500
O1062       O  0.98135393  0.94062281  0.58082424    -0.77100
O1063       O  0.03935748  0.89223795  0.59224646    -0.75300
O1064       O  0.03417900  0.91140864  0.54584124    -1.11500
O1065       O  0.06785069  0.85967369  0.55684001    -0.70700
C1066       C  0.08565341  0.85361211  0.53675637     1.00100
C1067       C  0.00695959  0.96502099  0.51721348     0.96400
Al1068     Al  0.04026142  0.94490116  0.56051094     1.55600
O1069       O  0.98841297  0.89407843  0.50579763    -0.75300
C1070       C  0.07600466  0.90898995  0.59664791     1.00600
C1071       C  0.12756871  0.94615553  0.52814448     0.95500
O1072       O  0.11944633  0.92108418  0.52117305    -0.80600
O1073       O  0.16474588  0.51104893  0.01876949    -0.80100
C1074       C  0.30031412  0.95542789  0.07726741     0.99300
O1075       O  0.29581500  0.97950986  0.06765132    -0.69200
O1076       O  0.26685809  0.51648257  0.03493181    -0.72800
Al1077     Al  0.23369166  0.99873969  0.06168199     1.49000
C1078       C  0.27487040  0.50869315  0.01381365     0.94500
O1079       O  0.21253242  0.93511299  0.00628475    -0.79000
O1080       O  0.14464323  0.92268284  0.04281865    -0.72600
Al1081     Al  0.19058257  0.97276881  0.01545021     1.90100
O1082       O  0.24625979  0.91723851  0.03882145    -0.71600
O1083       O  0.15763139  0.95079968  0.08305334    -0.71500
O1084       O  0.26174501  0.93989607  0.08067569    -0.77100
O1085       O  0.20367777  0.98828431  0.09210634    -0.75300
O1086       O  0.20892920  0.96912060  0.04569425    -1.11500
O1087       O  0.17522332  0.52084334  0.05668330    -0.70700
C1088       C  0.15748400  0.52691696  0.03658965     1.00100
C1089       C  0.23617167  0.91551765  0.01706240     0.96400
Al1090     Al  0.20284112  0.93562565  0.06035859     1.55600
O1091       O  0.25476658  0.98644773  0.00566692    -0.75300
C1092       C  0.16705483  0.97151479  0.09650907     1.00600
C1093       C  0.11555057  0.93439276  0.02798323     0.95500
O1094       O  0.12369720  0.95945628  0.02099641    -0.80600
O1095       O  0.07941531  0.51106368  0.23284586    -0.80100
C1096       C  0.94335671  0.95550457  0.17451598     0.99300
O1097       O  0.94792394  0.97957215  0.18414883    -0.69200
O1098       O  0.97709223  0.51650424  0.21686275    -0.72800
Al1099     Al  0.01009281  0.99878268  0.19005003     1.49000
C1100       C  0.96924476  0.50871723  0.23799715     0.94500
O1101       O  0.03166155  0.93511918  0.24541104    -0.79000
O1102       O  0.09921031  0.92268871  0.20874723    -0.72600
Al1103     Al  0.05356858  0.97278786  0.23620353     1.90100
O1104       O  0.99763962  0.91725616  0.21293735    -0.71600
O1105       O  0.08593080  0.95081187  0.16854395    -0.71500
O1106       O  0.98186965  0.93993862  0.17109394    -0.77100
O1107       O  0.03991195  0.98833929  0.15957850    -0.75300
O1108       O  0.03494976  0.96914964  0.20599283    -1.11500
O1109       O  0.06859461  0.52088533  0.19496172    -0.70700
C1110       C  0.08652753  0.52694191  0.21501909     1.00100
C1111       C  0.00791576  0.91552278  0.23467990     0.96400
Al1112     Al  0.04089701  0.93565007  0.19131590     1.55600
O1113       O  0.98948406  0.98649562  0.24612249    -0.75300
C1114       C  0.07645711  0.97154037  0.15511057     1.00600
C1115       C  0.12843836  0.93439184  0.22352493     0.95500
O1116       O  0.12039101  0.95946312  0.23051488    -0.80600
O1117       O  0.87358490  0.79560515  0.27114019    -0.80100
C1118       C  0.05036466  0.79963814  0.32728665     0.99300
O1119       O  0.01185606  0.81522305  0.33068121    -0.69200
O1120       O  0.99616972  0.83789270  0.28883868    -0.72800
Al1121     Al  0.95285266  0.81949147  0.31042669     1.49000
C1122       C  0.98596353  0.83962775  0.26709158     0.94500
O1123       O  0.00464969  0.76867572  0.25572149    -0.79000
O1124       O  0.92511239  0.73426839  0.30677194    -0.72600
Al1125     Al  0.94045957  0.78233265  0.26553588     1.90100
O1126       O  0.01675619  0.73861228  0.28497021    -0.71600
O1127       O  0.95365832  0.76681215  0.34220049    -0.71500
O1128       O  0.04577589  0.77554315  0.31770521    -0.77100
O1129       O  0.90774153  0.80435223  0.33317686    -0.75300
O1130       O  0.95887743  0.78598509  0.29577168    -1.11500
O1131       O  0.89456275  0.83240060  0.29293507    -0.70700
C1132       C  0.86543919  0.82066928  0.27812270     1.00100
C1133       C  0.02478450  0.74642797  0.26385568     0.96400
Al1134     Al  0.98362167  0.75635084  0.31175109     1.55600
O1135       O  0.96230829  0.82001495  0.25634124    -0.75300
C1136       C  0.91712881  0.78363771  0.34663532     1.00600
C1137       C  0.90738167  0.72818509  0.28667931     0.95500
O1138       O  0.91467537  0.74404081  0.26885557    -0.80600
O1139       O  0.86963436  0.79597836  0.48071189    -0.80100
C1140       C  0.69305004  0.80016362  0.42444558     0.99300
O1141       O  0.73165525  0.81566818  0.42102996    -0.69200
O1142       O  0.74730770  0.83836681  0.46286851    -0.72800
Al1143     Al  0.79061451  0.81988031  0.44132406     1.49000
C1144       C  0.75734995  0.84006321  0.48463627     0.94500
O1145       O  0.73846899  0.76912534  0.49602812    -0.79000
O1146       O  0.81796421  0.73464840  0.44502206    -0.72600
Al1147     Al  0.80270979  0.78273990  0.48625077     1.90100
O1148       O  0.72633482  0.73909079  0.46676776    -0.71600
O1149       O  0.78959481  0.76719450  0.40958503    -0.71500
O1150       O  0.69749876  0.77607240  0.43404845    -0.77100
O1151       O  0.83576248  0.80463044  0.41862114    -0.75300
O1152       O  0.78439670  0.78639983  0.45600204    -1.11500
O1153       O  0.84886229  0.83274850  0.45884874    -0.70700
C1154       C  0.87786873  0.82102673  0.47371255     1.00100
C1155       C  0.71830284  0.74689790  0.48787831     0.96400
Al1156     Al  0.75955744  0.75679344  0.44001832     1.55600
O1157       O  0.78087962  0.82042545  0.49541412    -0.75300
C1158       C  0.82630003  0.78390538  0.40518069     1.00600
C1159       C  0.83569369  0.72856698  0.46511503     0.95500
O1160       O  0.82843909  0.74443290  0.48293790    -0.80600
O1161       O  0.57857623  0.51151653  0.73290326    -0.80100
C1162       C  0.44281038  0.95581150  0.67453454     0.99300
O1163       O  0.44727730  0.97988421  0.68416849    -0.69200
O1164       O  0.47631647  0.51689174  0.71684744    -0.72800
Al1165     Al  0.50939440  0.99914039  0.69007806     1.49000
C1166       C  0.46842676  0.50912072  0.73798059     0.94500
O1167       O  0.53083806  0.93556717  0.74549456    -0.79000
O1168       O  0.59852392  0.92309963  0.70893295    -0.72600
Al1169     Al  0.55275496  0.97322812  0.73628258     1.90100
O1170       O  0.49692018  0.91769026  0.71299926    -0.71600
O1171       O  0.58543596  0.95119672  0.66870065    -0.71500
O1172       O  0.48138562  0.94029169  0.67112208    -0.77100
O1173       O  0.53930980  0.98865644  0.65964432    -0.75300
O1174       O  0.53425412  0.96954796  0.70606400    -1.11500
O1175       O  0.56784800  0.52126954  0.69499851    -0.70700
C1176       C  0.58572844  0.52736402  0.71505803     1.00100
C1177       C  0.50712414  0.91597114  0.73474755     0.96400
Al1178     Al  0.54029678  0.93603950  0.69142090     1.55600
O1179       O  0.48862824  0.98690568  0.74612889    -0.75300
C1180       C  0.57594394  0.97189563  0.65523767     1.00600
C1181       C  0.62769715  0.93483288  0.72371849     0.95500
O1182       O  0.61961434  0.95991723  0.73066782    -0.80600
O1183       O  0.66386091  0.51143304  0.51891648    -0.80100
C1184       C  0.79967010  0.95583273  0.57733797     0.99300
O1185       O  0.79512932  0.97991009  0.56771799    -0.69200
O1186       O  0.76606610  0.51685092  0.53499499    -0.72800
Al1187     Al  0.73298502  0.99913194  0.56177223     1.49000
C1188       C  0.77397865  0.50906247  0.51386870     0.94500
O1189       O  0.71154855  0.93549224  0.50638299    -0.79000
O1190       O  0.64385206  0.92307143  0.54300019    -0.72600
Al1191     Al  0.68966240  0.97315360  0.51558220     1.90100
O1192       O  0.74543978  0.91759521  0.53887181    -0.71600
O1193       O  0.65707430  0.95116815  0.58321726    -0.71500
O1194       O  0.76114328  0.94026293  0.58072394    -0.77100
O1195       O  0.70308290  0.98868858  0.59221324    -0.75300
O1196       O  0.70816553  0.96950388  0.54580667    -1.11500
O1197       O  0.67450216  0.52125433  0.55681168    -0.70700
C1198       C  0.65668785  0.52731997  0.53673030     1.00100
C1199       C  0.73524493  0.91588625  0.51712031     0.96400
Al1200     Al  0.70214792  0.93600048  0.56047000     1.55600
O1201       O  0.75379987  0.98683199  0.50573079    -0.75300
C1202       C  0.66652213  0.97189551  0.59665443     1.00600
C1203       C  0.61468268  0.93478945  0.52820338     0.95500
O1204       O  0.62280117  0.95985323  0.52121023    -0.80600
O1205       O  0.37296207  0.79601045  0.77109508    -0.80100
C1206       C  0.54995267  0.80000746  0.82713719     0.99300
O1207       O  0.51137911  0.81552154  0.83058622    -0.69200
O1208       O  0.49557955  0.83826543  0.78878087    -0.72800
Al1209     Al  0.45234962  0.81980105  0.81035337     1.49000
C1210       C  0.48532680  0.84003273  0.76704039     0.94500
O1211       O  0.50395014  0.76911560  0.75548922    -0.79000
O1212       O  0.42490866  0.73458343  0.80660273    -0.72600
Al1213     Al  0.43982598  0.78274814  0.76541132     1.90100
O1214       O  0.51637168  0.73905336  0.78470542    -0.71600
O1215       O  0.45355350  0.76707611  0.84201143    -0.71500
O1216       O  0.54547498  0.77596618  0.81744848    -0.77100
O1217       O  0.40733447  0.80453852  0.83307901    -0.75300
O1218       O  0.45841340  0.78634480  0.79562762    -1.11500
O1219       O  0.39401504  0.83275445  0.79292328    -0.70700
C1220       C  0.36483211  0.82105835  0.77812141     1.00100
C1221       C  0.52420400  0.74688425  0.76358360     0.96400
Al1222     Al  0.48336027  0.75670997  0.81153240     1.55600
O1223       O  0.46165273  0.82044376  0.75626650    -0.75300
C1224       C  0.41691432  0.78380258  0.84648733     1.00600
C1225       C  0.40695590  0.72855395  0.78654350     0.95500
O1226       O  0.41405808  0.74444895  0.76872551    -0.80600
O1227       O  0.37041199  0.79563838  0.98060052    -0.80100
C1228       C  0.19351132  0.79975038  0.92448490     0.99300
O1229       O  0.23205874  0.81530589  0.92109580    -0.69200
O1230       O  0.24782533  0.83793662  0.96294244    -0.72800
Al1231     Al  0.29108213  0.81953537  0.94134454     1.49000
C1232       C  0.25805576  0.83964689  0.98468760     0.94500
O1233       O  0.23936856  0.76872151  0.99607510    -0.79000
O1234       O  0.31861582  0.73429707  0.94497027    -0.72600
Al1235     Al  0.30352969  0.78236620  0.98622511     1.90100
O1236       O  0.22707949  0.73870811  0.96681002    -0.71600
O1237       O  0.29001340  0.76687900  0.90958659    -0.71500
O1238       O  0.19802398  0.77567556  0.93411154    -0.77100
O1239       O  0.33612165  0.80435709  0.91859289    -0.75300
O1240       O  0.28502325  0.78603575  0.95600238    -1.11500
O1241       O  0.34940694  0.83243350  0.95881563    -0.70700
C1242       C  0.37855778  0.82070311  0.97361476     1.00100
C1243       C  0.21916569  0.74649974  0.98793451     0.96400
Al1244     Al  0.26014868  0.75642965  0.94003304     1.55600
O1245       O  0.28171458  0.82003166  0.99542964    -0.75300
C1246       C  0.32659706  0.78365517  0.90514208     1.00600
C1247       C  0.33644454  0.72821275  0.96504500     0.95500
O1248       O  0.32927459  0.74407633  0.98287365    -0.80600
O1249       O  0.66470639  0.76109033  0.01876293    -0.80100
C1250       C  0.80044767  0.70542862  0.07716820     0.99300
O1251       O  0.79598030  0.72949943  0.06752964    -0.69200
O1252       O  0.76696211  0.76649218  0.03483005    -0.72800
Al1253     Al  0.73386524  0.74875321  0.06160543     1.49000
C1254       C  0.77486562  0.75871392  0.01369924     0.94500
O1255       O  0.71248715  0.68513886  0.00622143    -0.79000
O1256       O  0.64474735  0.67269633  0.04278331    -0.72600
Al1257     Al  0.69054705  0.72280421  0.01540683     1.90100
O1258       O  0.74634594  0.66727530  0.03873613    -0.71600
O1259       O  0.65779981  0.70083089  0.08299949    -0.71500
O1260       O  0.76186467  0.68991989  0.08059888    -0.77100
O1261       O  0.70392258  0.73829346  0.09204514    -0.75300
O1262       O  0.70901922  0.71914764  0.04563144    -1.11500
O1263       O  0.67541371  0.77087552  0.05666383    -0.70700
C1264       C  0.65754158  0.77695112  0.03659852     1.00100
C1265       C  0.73617772  0.66554605  0.01698463     0.96400
Al1266     Al  0.70296016  0.68565111  0.06029568     1.55600
O1267       O  0.75468019  0.73648789  0.00556077    -0.75300
C1268       C  0.66727656  0.72153983  0.09645392     1.00600
C1269       C  0.61559412  0.68441316  0.02798047     0.95500
O1270       O  0.62368630  0.70948937  0.02101356    -0.80600
O1271       O  0.57932524  0.76101676  0.23276627    -0.80100
C1272       C  0.44344467  0.70546573  0.17435507     0.99300
O1273       O  0.44800741  0.72953878  0.18397980    -0.69200
O1274       O  0.47710860  0.76646608  0.21670810    -0.72800
Al1275     Al  0.51016512  0.74874811  0.18991810     1.49000
C1276       C  0.46919650  0.75867407  0.23783399     0.94500
O1277       O  0.53159006  0.68507340  0.24528204    -0.79000
O1278       O  0.59927576  0.67266524  0.20864833    -0.72600
Al1279     Al  0.55349518  0.72274006  0.23609467     1.90100
O1280       O  0.49769941  0.66719087  0.21278717    -0.71600
O1281       O  0.58605312  0.70079337  0.16844518    -0.71500
O1282       O  0.48196569  0.68989622  0.17094850    -0.77100
O1283       O  0.54004552  0.73831738  0.15946468    -0.75300
O1284       O  0.53497744  0.71910775  0.20587076    -1.11500
O1285       O  0.56866410  0.77085247  0.19487431    -0.70700
C1286       C  0.58649961  0.77690643  0.21495324     1.00100
C1287       C  0.50790217  0.66546828  0.23453778     0.96400
Al1288     Al  0.54097932  0.68561280  0.19119111     1.55600
O1289       O  0.48936653  0.73643397  0.24596305    -0.75300
C1290       C  0.57661411  0.72153088  0.15501703     1.00600
C1291       C  0.62844481  0.68436640  0.22345360     0.95500
O1292       O  0.62034507  0.70942827  0.23045490    -0.80600
O1293       O  0.36953644  0.54596588  0.48058572    -0.80100
C1294       C  0.19276462  0.55006663  0.42444454     0.99300
O1295       O  0.23134033  0.56558601  0.42100938    -0.69200
O1296       O  0.24704865  0.58829886  0.46283665    -0.72800
Al1297     Al  0.29033413  0.56983468  0.44127295     1.49000
C1298       C  0.25719907  0.59003381  0.48459057     0.94500
O1299       O  0.23845315  0.51910082  0.49604022    -0.79000
O1300       O  0.31778738  0.98460457  0.44498470    -0.72600
Al1301     Al  0.30264424  0.53272265  0.48619824     1.90100
O1302       O  0.22620619  0.98904460  0.46680341    -0.71600
O1303       O  0.28932161  0.51713037  0.40955346    -0.71500
O1304       O  0.19725865  0.52598826  0.43406444    -0.77100
O1305       O  0.33543577  0.55460350  0.41855190    -0.75300
O1306       O  0.28421001  0.53635675  0.45596420    -1.11500
O1307       O  0.34862059  0.58274028  0.45875871    -0.70700
C1308       C  0.37771496  0.57101882  0.47358624     1.00100
C1309       C  0.21824879  0.99686855  0.48791939     0.96400
Al1310     Al  0.25935230  0.50673334  0.44001144     1.55600
O1311       O  0.28081850  0.57042094  0.49536117    -0.75300
C1312       C  0.32597687  0.53386996  0.40512204     1.00600
C1313       C  0.33559809  0.97854034  0.46506439     0.95500
O1314       O  0.32839020  0.99441497  0.48288615    -0.80600
O1315       O  0.37349792  0.54561469  0.27106072    -0.80100
C1316       C  0.55014486  0.54977219  0.32729759     0.99300
O1317       O  0.51160514  0.56534026  0.33066873    -0.69200
O1318       O  0.49597646  0.58795620  0.28879734    -0.72800
Al1319     Al  0.45263885  0.56955850  0.31038279     1.49000
C1320       C  0.48585606  0.58964000  0.26703756     0.94500
O1321       O  0.50461335  0.51868068  0.25575164    -0.79000
O1322       O  0.42501920  0.98431766  0.30679041    -0.72600
Al1323     Al  0.44039611  0.53233852  0.26551550     1.90100
O1324       O  0.51668890  0.98867086  0.28503984    -0.71600
O1325       O  0.45345412  0.51691831  0.34219976    -0.71500
O1326       O  0.54560555  0.52566157  0.31773854    -0.77100
O1327       O  0.40748654  0.55441909  0.33312334    -0.75300
O1328       O  0.45873776  0.53603735  0.29575802    -1.11500
O1329       O  0.39438835  0.58242682  0.29285386    -0.70700
C1330       C  0.36532325  0.57068395  0.27802512     1.00100
C1331       C  0.52474422  0.99645256  0.26392122     0.96400
Al1332     Al  0.48348750  0.50643372  0.31177777     1.55600
O1333       O  0.46225441  0.57000209  0.25629568    -0.75300
C1334       C  0.41686528  0.53371504  0.34659591     1.00600
C1335       C  0.40732798  0.97820764  0.28669507     0.95500
O1336       O  0.41462651  0.99404900  0.26886292    -0.80600
O1337       O  0.07848449  0.76144703  0.73287734    -0.80100
C1338       C  0.94294911  0.70583670  0.67434882     0.99300
O1339       O  0.94742029  0.72991146  0.68398131    -0.69200
O1340       O  0.97636978  0.76687774  0.71670746    -0.72800
Al1341     Al  0.00953560  0.74914575  0.68996162     1.49000
C1342       C  0.96836764  0.75908462  0.73782431     0.94500
O1343       O  0.03069125  0.68550861  0.74535000    -0.79000
O1344       O  0.09858775  0.67308570  0.70882527    -0.72600
Al1345     Al  0.05264653  0.72316643  0.73619106     1.90100
O1346       O  0.99696824  0.66764216  0.71280879    -0.71600
O1347       O  0.08561865  0.70122078  0.66860144    -0.71500
O1348       O  0.98152637  0.69030965  0.67095109    -0.77100
O1349       O  0.03955059  0.73869848  0.65954496    -0.75300
O1350       O  0.03430212  0.71952518  0.70594744    -1.11500
O1351       O  0.06799706  0.77125367  0.69496606    -0.70700
C1352       C  0.08574568  0.77731968  0.71505951     1.00100
C1353       C  0.00705036  0.66591649  0.73456839     0.96400
Al1354     Al  0.04040242  0.68603468  0.69128047     1.55600
O1355       O  0.98846704  0.73683902  0.74597022    -0.75300
C1356       C  0.07618549  0.72193720  0.65514887     1.00600
C1357       C  0.12768159  0.68479523  0.72365958     0.95500
O1358       O  0.11953311  0.70985821  0.73064658    -0.80600
O1359       O  0.16378680  0.76148618  0.51885503    -0.80100
C1360       C  0.29978547  0.70584733  0.57717210     0.99300
O1361       O  0.29527438  0.72991008  0.56752474    -0.69200
O1362       O  0.26614366  0.76686235  0.53482049    -0.72800
Al1363     Al  0.23314192  0.74915894  0.56163300     1.49000
C1364       C  0.27394388  0.75907602  0.51368345     0.94500
O1365       O  0.21142198  0.68551916  0.50627278    -0.79000
O1366       O  0.14389003  0.67310990  0.54293377    -0.72600
Al1367     Al  0.18957076  0.72319653  0.51548685     1.90100
O1368       O  0.24545245  0.66764182  0.53874097    -0.71600
O1369       O  0.15722135  0.70123129  0.58313087    -0.71500
O1370       O  0.26124368  0.69030375  0.58059023    -0.77100
O1371       O  0.20333314  0.73872430  0.59210117    -0.75300
O1372       O  0.20821508  0.71954430  0.54569140    -1.11500
O1373       O  0.17468129  0.77130012  0.55673579    -0.70700
C1374       C  0.15672527  0.77736689  0.53668494     1.00100
C1375       C  0.23516839  0.66591806  0.51699874     0.96400
Al1376     Al  0.20222125  0.68604629  0.56036425     1.55600
O1377       O  0.25366075  0.73686852  0.50555870    -0.75300
C1378       C  0.16675093  0.72195091  0.59656433     1.00600
C1379       C  0.11466144  0.68483241  0.52816714     0.95500
O1380       O  0.12273161  0.70990542  0.52118757    -0.80600
O1381       O  0.87283297  0.54600907  0.77100931    -0.80100
C1382       C  0.04973903  0.55017123  0.82711437     0.99300
O1383       O  0.01114134  0.56567826  0.83053195    -0.69200
O1384       O  0.99536198  0.58833590  0.78868875    -0.72800
Al1385     Al  0.95212742  0.56989350  0.81027466     1.49000
C1386       C  0.98516187  0.59004117  0.76693833     0.94500
O1387       O  0.00387141  0.51911379  0.75550685    -0.79000
O1388       O  0.92479164  0.98465467  0.80663418    -0.72600
Al1389     Al  0.93972033  0.53274592  0.76537859     1.90100
O1390       O  0.01626765  0.98911906  0.78477257    -0.71600
O1391       O  0.95336479  0.51723048  0.84200047    -0.71500
O1392       O  0.04529765  0.52610948  0.81745776    -0.77100
O1393       O  0.90709015  0.55464868  0.83300461    -0.75300
O1394       O  0.95825250  0.53641139  0.79559653    -1.11500
O1395       O  0.89381399  0.58279255  0.79280641    -0.70700
C1396       C  0.86468283  0.57107112  0.77799701     1.00100
C1397       C  0.02412096  0.99690539  0.76364422     0.96400
Al1398     Al  0.98321202  0.50681762  0.81155227     1.55600
O1399       O  0.96153380  0.57041968  0.75618660    -0.75300
C1400       C  0.91666934  0.53393125  0.84643381     1.00600
C1401       C  0.90688076  0.97857873  0.78657568     0.95500
O1402       O  0.91398305  0.99444683  0.76874066    -0.80600
O1403       O  0.87033868  0.54563098  0.98046419    -0.80100
C1404       C  0.69327855  0.54971383  0.92445829     0.99300
O1405       O  0.73180465  0.56528099  0.92106194    -0.69200
O1406       O  0.74761947  0.58790172  0.96291120    -0.72800
Al1407     Al  0.79085085  0.56952583  0.94128743     1.49000
C1408       C  0.75795196  0.58963212  0.98464488     0.94500
O1409       O  0.73936599  0.51870022  0.99605393    -0.79000
O1410       O  0.81844845  0.98427930  0.94489119    -0.72600
Al1411     Al  0.80348330  0.53235402  0.98615042     1.90100
O1412       O  0.72695620  0.98868883  0.96679667    -0.71600
O1413       O  0.78977256  0.51686961  0.90952885    -0.71500
O1414       O  0.69781791  0.52564548  0.93409294    -0.77100
O1415       O  0.83584315  0.55437239  0.91851694    -0.75300
O1416       O  0.78486532  0.53601974  0.95594333    -1.11500
O1417       O  0.84920752  0.58244219  0.95872627    -0.70700
C1418       C  0.87843622  0.57070353  0.97348730     1.00100
C1419       C  0.71911893  0.99648186  0.98793005     0.96400
Al1420     Al  0.75996450  0.50640941  0.93998972     1.55600
O1421       O  0.78168022  0.57002755  0.99537074    -0.75300
C1422       C  0.82631482  0.53367086  0.90506793     1.00600
C1423       C  0.83635578  0.97819971  0.96495005     0.95500
O1424       O  0.82923685  0.99406363  0.98278346    -0.80600
O1425       O  0.87356494  0.83453925  0.98047426    -0.80100
C1426       C  0.05037756  0.83045385  0.92435386     0.99300
O1427       O  0.01180864  0.81492775  0.92091825    -0.69200
O1428       O  0.99607070  0.79221490  0.96274508    -0.72800
Al1429     Al  0.95279760  0.81067586  0.94117399     1.49000
C1430       C  0.98590832  0.79048595  0.98449818     0.94500
O1431       O  0.00463097  0.86143122  0.99593700    -0.79000
O1432       O  0.92531582  0.89590588  0.94486463    -0.72600
Al1433     Al  0.94045077  0.84779603  0.98609045     1.90100
O1434       O  0.01687710  0.89147898  0.96669402    -0.71600
O1435       O  0.95383940  0.86337452  0.90945157    -0.71500
O1436       O  0.04587049  0.85453112  0.93397441    -0.77100
O1437       O  0.90770960  0.82590681  0.91845007    -0.75300
O1438       O  0.95890568  0.84415681  0.95586108    -1.11500
O1439       O  0.89450071  0.79776400  0.95865467    -0.70700
C1440       C  0.86540132  0.80948074  0.97348235     1.00100
C1441       C  0.02482895  0.88366235  0.98781103     0.96400
Al1442     Al  0.98376594  0.87378038  0.93990690     1.55600
O1443       O  0.96228933  0.81010338  0.99526261    -0.75300
C1444       C  0.91717603  0.84664280  0.90502416     1.00600
C1445       C  0.90748647  0.90197181  0.96494014     0.95500
O1446       O  0.91468659  0.88610002  0.98276528    -0.80600
O1447       O  0.86969483  0.83492875  0.77104170    -0.80100
C1448       C  0.69302549  0.83075705  0.82724925     0.99300
O1449       O  0.73157230  0.81519815  0.83061848    -0.69200
O1450       O  0.74716696  0.79259103  0.78873838    -0.72800
Al1451     Al  0.79050847  0.81097983  0.81032791     1.49000
C1452       C  0.75732808  0.79089918  0.76698301     0.94500
O1453       O  0.73860520  0.86185165  0.75567742    -0.79000
O1454       O  0.81809415  0.89623110  0.80673431    -0.72600
Al1455     Al  0.80280423  0.84819806  0.76546618     1.90100
O1456       O  0.72644520  0.89184762  0.78496856    -0.71600
O1457       O  0.78967827  0.86362239  0.84213256    -0.71500
O1458       O  0.69753650  0.85486069  0.81767464    -0.77100
O1459       O  0.83565226  0.82611954  0.83306041    -0.75300
O1460       O  0.78441762  0.84450100  0.79570152    -1.11500
O1461       O  0.84875044  0.79810707  0.79281126    -0.70700
C1462       C  0.87785581  0.80985952  0.77800768     1.00100
C1463       C  0.71843675  0.88406931  0.76384532     0.96400
Al1464     Al  0.75964247  0.87410079  0.81171357     1.55600
O1465       O  0.78095899  0.81053093  0.75624589    -0.75300
C1466       C  0.82627075  0.84682748  0.84652628     1.00600
C1467       C  0.83582953  0.90233361  0.78664709     0.95500
O1468       O  0.82856514  0.88648792  0.76881523    -0.80600
O1469       O  0.07936948  0.61905342  0.01871330    -0.80100
C1470       C  0.94347961  0.67463872  0.07710059     0.99300
O1471       O  0.94800824  0.65057003  0.06746474    -0.69200
O1472       O  0.97710962  0.61363307  0.03474394    -0.72800
Al1473     Al  0.01015703  0.63135007  0.06154062     1.49000
C1474       C  0.96922408  0.62142500  0.01361481     0.94500
O1475       O  0.03165740  0.69500528  0.00616817    -0.79000
O1476       O  0.09927599  0.70741805  0.04280741    -0.72600
Al1477     Al  0.05355152  0.65733508  0.01536786     1.90100
O1478       O  0.99770007  0.71287166  0.03865411    -0.71600
O1479       O  0.08605722  0.67930728  0.08301323    -0.71500
O1480       O  0.98200833  0.69019719  0.08050440    -0.77100
O1481       O  0.04002649  0.64179176  0.09199907    -0.75300
O1482       O  0.03499816  0.66097695  0.04558653    -1.11500
O1483       O  0.06864139  0.60924235  0.05660552    -0.70700
C1484       C  0.08651428  0.60317735  0.03653819     1.00100
C1485       C  0.00793292  0.71460169  0.01690766     0.96400
Al1486     Al  0.04099104  0.69447404  0.06025892     1.55600
O1487       O  0.98943818  0.64364941  0.00548330    -0.75300
C1488       C  0.07658232  0.65858731  0.09645502     1.00600
C1489       C  0.12847790  0.69570684  0.02802440     0.95500
O1490       O  0.12039482  0.67064215  0.02102681    -0.80600
O1491       O  0.16476153  0.61906627  0.23280016    -0.80100
C1492       C  0.30031406  0.67475384  0.17433783     0.99300
O1493       O  0.29584051  0.65067238  0.18395779    -0.69200
O1494       O  0.26688874  0.61367255  0.21666174    -0.72800
Al1495     Al  0.23373516  0.63141943  0.18990909     1.49000
C1496       C  0.27486969  0.62145827  0.23778305     0.94500
O1497       O  0.21247236  0.69501790  0.24532123    -0.79000
O1498       O  0.14457352  0.70744485  0.20879130    -0.72600
Al1499     Al  0.19055891  0.65735677  0.23613953     1.90100
O1500       O  0.24619110  0.71291738  0.21279257    -0.71600
O1501       O  0.15762909  0.67933671  0.16854005    -0.71500
O1502       O  0.26173037  0.69027842  0.17093527    -0.77100
O1503       O  0.20375070  0.64188127  0.15948230    -0.75300
O1504       O  0.20892296  0.66102398  0.20590083    -1.11500
O1505       O  0.17528453  0.60929230  0.19488539    -0.70700
C1506       C  0.15753097  0.60320312  0.21497294     1.00100
C1507       C  0.23610307  0.71462407  0.23455212     0.96400
Al1508     Al  0.20280293  0.69452261  0.19124644     1.55600
O1509       O  0.25474787  0.64369882  0.24592707    -0.75300
C1510       C  0.16710848  0.65863613  0.15507634     1.00600
C1511       C  0.11549974  0.69572094  0.22362912     0.95500
O1512       O  0.12366079  0.67064881  0.23059098    -0.80600
O1513       O  0.37040828  0.83451853  0.27102020    -0.80100
C1514       C  0.19350690  0.83033167  0.32713361     0.99300
O1515       O  0.23210786  0.81482381  0.33054677    -0.69200
O1516       O  0.24790270  0.79217531  0.28870301    -0.72800
Al1517     Al  0.29113235  0.81062009  0.31029044     1.49000
C1518       C  0.25808000  0.79047752  0.26695062     0.94500
O1519       O  0.23935575  0.86140404  0.25552300    -0.79000
O1520       O  0.31843366  0.89586254  0.30665489    -0.72600
Al1521     Al  0.30351410  0.84777643  0.26539488     1.90100
O1522       O  0.22694381  0.89139624  0.28478710    -0.71600
O1523       O  0.28989104  0.86328022  0.34202321    -0.71500
O1524       O  0.19794625  0.85439550  0.31747987    -0.77100
O1525       O  0.33617012  0.82586456  0.33302882    -0.75300
O1526       O  0.28499113  0.84410430  0.29561418    -1.11500
O1527       O  0.34945339  0.79773057  0.29281749    -0.70700
C1528       C  0.37857243  0.80945627  0.27800452     1.00100
C1529       C  0.21909198  0.88360949  0.26365639     0.96400
Al1530     Al  0.26002356  0.87369381  0.31157198     1.55600
O1531       O  0.28170485  0.81010148  0.25619938    -0.75300
C1532       C  0.32658579  0.84657877  0.34646168     1.00600
C1533       C  0.33633990  0.90194444  0.28659748     0.95500
O1534       O  0.32924180  0.88607870  0.26876053    -0.80600
O1535       O  0.37278644  0.83487423  0.48054644    -0.80100
C1536       C  0.54991318  0.83087221  0.42457737     0.99300
O1537       O  0.51141290  0.81528660  0.42117344    -0.69200
O1538       O  0.49555400  0.79264885  0.46300928    -0.72800
Al1539     Al  0.45233453  0.81101767  0.44137597     1.49000
C1540       C  0.48519003  0.79090297  0.48473807     0.94500
O1541       O  0.50372941  0.86183565  0.49616715    -0.79000
O1542       O  0.42462470  0.89624904  0.44500265    -0.72600
Al1543     Al  0.43962604  0.84816700  0.48624941     1.90100
O1544       O  0.51611473  0.89186244  0.46691714    -0.71600
O1545       O  0.45336625  0.86369032  0.40962578    -0.71500
O1546       O  0.54532377  0.85493972  0.43420860    -0.77100
O1547       O  0.40735538  0.82615769  0.41858716    -0.75300
O1548       O  0.45826659  0.84451972  0.45604196    -1.11500
O1549       O  0.39396170  0.79808189  0.45879468    -0.70700
C1550       C  0.36471245  0.80980450  0.47355561     1.00100
C1551       C  0.52396586  0.88406030  0.48804717     0.96400
Al1552     Al  0.48314108  0.87414563  0.44010028     1.55600
O1553       O  0.46144161  0.81049729  0.49546424    -0.75300
C1554       C  0.41686871  0.84686543  0.40514244     1.00600
C1555       C  0.40671816  0.90231776  0.46506376     0.95500
O1556       O  0.41384909  0.88644942  0.48289299    -0.80600
O1557       O  0.66395290  0.61950653  0.73272624    -0.80100
C1558       C  0.79987271  0.67507382  0.67433413     0.99300
O1559       O  0.79533556  0.65100423  0.68396864    -0.69200
O1560       O  0.76623554  0.61407474  0.71669535    -0.72800
Al1561     Al  0.73319059  0.63177451  0.68989819     1.49000
C1562       C  0.77409657  0.62186381  0.73782570     0.94500
O1563       O  0.71167181  0.69545334  0.74524304    -0.79000
O1564       O  0.64402791  0.70785717  0.70860072    -0.72600
Al1565     Al  0.68977673  0.65778342  0.73605752     1.90100
O1566       O  0.74559890  0.71332939  0.71275296    -0.71600
O1567       O  0.65728018  0.67971048  0.66841176    -0.71500
O1568       O  0.76133650  0.69062434  0.67091450    -0.77100
O1569       O  0.70332164  0.64219317  0.65944175    -0.75300
O1570       O  0.70833574  0.66141136  0.70584002    -1.11500
O1571       O  0.67471178  0.60964650  0.69484516    -0.70700
C1572       C  0.65682219  0.60360593  0.71491665     1.00100
C1573       C  0.73537103  0.71505637  0.73450057     0.96400
Al1574     Al  0.70233098  0.69490397  0.69115451     1.55600
O1575       O  0.75388835  0.64409354  0.74595104    -0.75300
C1576       C  0.66674225  0.65897154  0.65499013     1.00600
C1577       C  0.61484087  0.69615377  0.72339586     0.95500
O1578       O  0.62293167  0.67108987  0.73039389    -0.80600
O1579       O  0.57845916  0.61943425  0.51877613    -0.80100
C1580       C  0.44280607  0.67505872  0.57723441     0.99300
O1581       O  0.44726976  0.65099044  0.56759197    -0.69200
O1582       O  0.47626165  0.61400596  0.53488806    -0.72800
Al1583     Al  0.50938571  0.63175254  0.56164722     1.49000
C1584       C  0.46829872  0.62178971  0.51376421     0.94500
O1585       O  0.53060559  0.69537990  0.50626226    -0.79000
O1586       O  0.59841544  0.70782699  0.54279741    -0.72600
Al1587     Al  0.55258677  0.65771772  0.51543285     1.90100
O1588       O  0.49680482  0.71322944  0.53879450    -0.71600
O1589       O  0.58546423  0.67967996  0.58300821    -0.71500
O1590       O  0.48138708  0.69057166  0.58065805    -0.77100
O1591       O  0.53936250  0.64221617  0.59207281    -0.75300
O1592       O  0.53417938  0.66136540  0.54566533    -1.11500
O1593       O  0.56784825  0.60965043  0.55668387    -0.70700
C1594       C  0.58567682  0.60357660  0.53661002     1.00100
C1595       C  0.50693327  0.71496698  0.51703976     0.96400
Al1596     Al  0.54024693  0.69485851  0.56033076     1.55600
O1597       O  0.48843792  0.64402454  0.50561935    -0.75300
C1598       C  0.57602090  0.65896663  0.59646218     1.00600
C1599       C  0.62755127  0.69611986  0.52798334     0.95500
O1600       O  0.61945309  0.67104749  0.52100657    -0.80600
C1601       C  0.60736332  0.65510136  0.61721735    -0.11500
C1602       C  0.63548338  0.65509959  0.63420817    -0.13100
C1603       C  0.49427656  0.76454228  0.49651112    -0.11500
C1604       C  0.49770447  0.74132391  0.50528544    -0.13100
C1605       C  0.38578149  0.85063007  0.38429124    -0.11500
C1606       C  0.35780256  0.85051790  0.36724958    -0.13100
C1607       C  0.24888523  0.76414545  0.25515314    -0.11500
C1608       C  0.24537918  0.74095464  0.24633715    -0.13100
C1609       C  0.10778424  0.65476286  0.11726845    -0.11500
C1610       C  0.13583061  0.65478537  0.13429062    -0.13100
C1611       C  0.74810864  0.76457161  0.75516051    -0.11500
C1612       C  0.74460295  0.74139342  0.74630591    -0.13100
C1613       C  0.99513742  0.76413470  0.99628425    -0.11500
C1614       C  0.99867657  0.74094035  0.00510734    -0.13100
C1615       C  0.85763773  0.85063475  0.86729317    -0.11500
C1616       C  0.88581915  0.85057024  0.88426896    -0.13100
C1617       C  0.88153979  0.92847957  0.96762617    -0.11500
C1618       C  0.86229833  0.95168732  0.96761831    -0.13100
C1619       C  0.91547477  0.58788247  0.98550523    -0.11500
C1620       C  0.93979073  0.60358633  0.99809596    -0.13100
C1621       C  0.86173162  0.92885147  0.78394829    -0.11500
C1622       C  0.88094942  0.95206468  0.78391856    -0.13100
C1623       C  0.88544328  0.52998757  0.86721038    -0.11500
C1624       C  0.85743650  0.52988639  0.88423774    -0.13100
C1625       C  0.80347272  0.60400357  0.75335231    -0.11500
C1626       C  0.82771405  0.58826842  0.76594757    -0.13100
C1627       C  0.30336589  0.77690387  0.49815120    -0.11500
C1628       C  0.32767694  0.79260982  0.48556035    -0.13100
C1629       C  0.39273393  0.68579974  0.58262116    -0.11500
C1630       C  0.34987143  0.69514987  0.58259453    -0.13100
C1631       C  0.99431495  0.61638105  0.75514779    -0.11500
C1632       C  0.99778135  0.63957665  0.74633828    -0.13100
C1633       C  0.10750318  0.72579478  0.63438401    -0.11500
C1634       C  0.13556876  0.72580437  0.61737371    -0.13100
C1635       C  0.91479527  0.79268876  0.76593386    -0.11500
C1636       C  0.93899875  0.77696185  0.75332500    -0.13100
C1637       C  0.89286471  0.69510880  0.66893879    -0.11500
C1638       C  0.84998496  0.68577091  0.66893794    -0.13100
C1639       C  0.36225613  0.92846400  0.28394559    -0.11500
C1640       C  0.38145105  0.95168329  0.28398634    -0.13100
C1641       C  0.30423507  0.60358132  0.25329409    -0.11500
C1642       C  0.32841978  0.58786175  0.26592270    -0.13100
C1643       C  0.36153394  0.95203255  0.46775639    -0.11500
C1644       C  0.38077124  0.92882471  0.46774206    -0.13100
C1645       C  0.24440323  0.63958183  0.50519121    -0.11500
C1646       C  0.24795130  0.61638670  0.49637083    -0.13100
C1647       C  0.38549976  0.52991059  0.36737140    -0.11500
C1648       C  0.35732909  0.52996011  0.38435572    -0.13100
C1649       C  0.41466817  0.58820588  0.48564737    -0.11500
C1650       C  0.43890316  0.60392237  0.49825731    -0.13100
C1651       C  0.49510527  0.61596263  0.25521006    -0.11500
C1652       C  0.49864170  0.63913621  0.24634822    -0.13100
C1653       C  0.41554888  0.79226632  0.26594979    -0.11500
C1654       C  0.43980498  0.77653803  0.25335345    -0.13100
C1655       C  0.35041206  0.68548189  0.16894315    -0.11500
C1656       C  0.39331356  0.69479259  0.16895195    -0.13100
C1657       C  0.74884476  0.61598519  0.99642836    -0.11500
C1658       C  0.74540034  0.63919641  0.00521582    -0.13100
C1659       C  0.60788232  0.72539181  0.13423168    -0.11500
C1660       C  0.63598096  0.72539543  0.11723027    -0.13100
C1661       C  0.80424715  0.77657475  0.99817801    -0.11500
C1662       C  0.82846869  0.79228734  0.98555503    -0.13100
C1663       C  0.85052341  0.69468133  0.08254686    -0.11500
C1664       C  0.89338597  0.68532867  0.08252110    -0.13100
C1665       C  0.18974571  0.72864902  0.00344002    -0.11500
C1666       C  0.16547028  0.71291396  0.01601465    -0.13100
C1667       C  0.14340427  0.81043202  0.91904699    -0.11500
C1668       C  0.10049792  0.81973319  0.91899936    -0.13100
C1669       C  0.38575101  0.77988174  0.86729095    -0.11500
C1670       C  0.35775978  0.77983406  0.88432559    -0.13100
C1671       C  0.57786783  0.71336448  0.73542418    -0.11500
C1672       C  0.55360412  0.72907351  0.74803073    -0.13100
C1673       C  0.64292177  0.82003535  0.83261853    -0.11500
C1674       C  0.60003753  0.81070805  0.83257660    -0.13100
C1675       C  0.61162122  0.57706633  0.53394468    -0.11500
C1676       C  0.63081378  0.55384522  0.53400639    -0.13100
C1677       C  0.57767857  0.91759731  0.51617520    -0.11500
C1678       C  0.55338284  0.90189106  0.50357883    -0.13100
C1679       C  0.63089688  0.57709384  0.71763372    -0.11500
C1680       C  0.61167477  0.55387977  0.71769725    -0.13100
C1681       C  0.49792053  0.88962619  0.74652546    -0.11500
C1682       C  0.49446942  0.86640736  0.75529752    -0.13100
C1683       C  0.60720853  0.97573705  0.63445393    -0.11500
C1684       C  0.63527700  0.97573802  0.61744493    -0.13100
C1685       C  0.68895198  0.90192748  0.74836525    -0.11500
C1686       C  0.66465837  0.91764371  0.73577691    -0.13100
C1687       C  0.74452363  0.88956613  0.50530031    -0.11500
C1688       C  0.74807738  0.86639472  0.49644072    -0.13100
C1689       C  0.68880085  0.72905586  0.50336293    -0.11500
C1690       C  0.66450207  0.71332775  0.51593754    -0.13100
C1691       C  0.64295421  0.81092310  0.41909346    -0.11500
C1692       C  0.60005006  0.82022889  0.41914682    -0.13100
C1693       C  0.88583937  0.77986383  0.36743865    -0.11500
C1694       C  0.85769054  0.77996608  0.38443113    -0.13100
C1695       C  0.05426588  0.72859003  0.24834569    -0.11500
C1696       C  0.07856066  0.71290385  0.23572473    -0.13100
C1697       C  0.10051794  0.81031638  0.33263535    -0.11500
C1698       C  0.14342816  0.81961392  0.33258051    -0.13100
C1699       C  0.11246976  0.55345328  0.21769022    -0.11500
C1700       C  0.13165896  0.57667499  0.21767523    -0.13100
C1701       C  0.99516983  0.86598185  0.25530288    -0.11500
C1702       C  0.99868657  0.88917976  0.24648128    -0.13100
C1703       C  0.16540799  0.91717307  0.23554481    -0.11500
C1704       C  0.18967083  0.90144710  0.24813588    -0.13100
C1705       C  0.11242284  0.57665994  0.03385567    -0.11500
C1706       C  0.13160061  0.55343681  0.03387219    -0.13100
C1707       C  0.24543693  0.88917999  0.00528956    -0.11500
C1708       C  0.24890375  0.86598475  0.99647990    -0.13100
C1709       C  0.13573320  0.97536267  0.11728323    -0.11500
C1710       C  0.10766204  0.97537591  0.13429696    -0.13100
C1711       C  0.07859381  0.91719608  0.01592360    -0.11500
C1712       C  0.05429817  0.90148969  0.00332596    -0.13100
C1713       C  0.11158047  0.82710088  0.53404945    -0.11500
C1714       C  0.13079520  0.80388479  0.53402640    -0.13100
C1715       C  0.16449280  0.96335839  0.51606341    -0.11500
C1716       C  0.18877342  0.97905085  0.50344430    -0.13100
C1717       C  0.91477102  0.83821420  0.48580618    -0.11500
C1718       C  0.93894860  0.85394939  0.49842525    -0.13100
C1719       C  0.89267639  0.93583032  0.58278580    -0.11500
C1720       C  0.84978524  0.94515278  0.58276039    -0.13100
C1721       C  0.13083980  0.82705277  0.71779505    -0.11500
C1722       C  0.11164470  0.80383371  0.71777912    -0.13100
C1723       C  0.13543550  0.90509083  0.63440636    -0.11500
C1724       C  0.10733181  0.90511369  0.61740859    -0.13100
C1725       C  0.07779583  0.96331266  0.73557104    -0.11500
C1726       C  0.05352590  0.97905934  0.74813448    -0.13100
C1727       C  0.30348589  0.85398725  0.75355017    -0.11500
C1728       C  0.32780187  0.83826531  0.76612498    -0.13100
C1729       C  0.34988483  0.93571958  0.66913525    -0.11500
C1730       C  0.39274268  0.94507475  0.66913365    -0.13100
C1731       C  0.36234526  0.70169478  0.96773646    -0.11500
C1732       C  0.38155927  0.67848115  0.96775469    -0.13100
C1733       C  0.55436438  0.65149500  0.00333254    -0.11500
C1734       C  0.57864668  0.66721163  0.01592503    -0.13100
C1735       C  0.60027264  0.56969525  0.91897852    -0.11500
C1736       C  0.64316686  0.56038216  0.91902061    -0.13100
C1737       C  0.32847371  0.54230031  0.98570252    -0.11500
C1738       C  0.30426229  0.52657134  0.99831290    -0.13100
C1739       C  0.36172300  0.67885684  0.78391083    -0.11500
C1740       C  0.38097181  0.70206058  0.78386903    -0.13100
C1741       C  0.24457515  0.99134117  0.74649607    -0.11500
C1742       C  0.24808576  0.51453906  0.75531283    -0.13100
C1743       C  0.35735291  0.60073538  0.86740508    -0.11500
C1744       C  0.38552092  0.60063370  0.88438750    -0.13100
C1745       C  0.18895329  0.65189611  0.74830965    -0.11500
C1746       C  0.16464535  0.66760126  0.73571562    -0.13100
C1747       C  0.14270924  0.57020537  0.83261330    -0.11500
C1748       C  0.09981264  0.56089245  0.83255900    -0.13100
C1749       C  0.43903399  0.52697757  0.75349305    -0.11500
C1750       C  0.41478459  0.54268506  0.76610219    -0.13100
C1751       C  0.61239081  0.80342616  0.21767362    -0.11500
C1752       C  0.63156817  0.82665089  0.21772776    -0.13100
C1753       C  0.57853225  0.96287409  0.23585740    -0.11500
C1754       C  0.55423679  0.97858818  0.24844795    -0.13100
C1755       C  0.82848761  0.83784941  0.26605371    -0.11500
C1756       C  0.80424018  0.85354881  0.25343331    -0.13100
C1757       C  0.85035744  0.93549501  0.16911255    -0.11500
C1758       C  0.89323553  0.94482791  0.16911964    -0.13100
C1759       C  0.61240430  0.82668487  0.03399178    -0.11500
C1760       C  0.63160026  0.80346469  0.03394095    -0.13100
C1761       C  0.49521695  0.51414195  0.99633187    -0.11500
C1762       C  0.49876269  0.99096295  0.00518110    -0.13100
C1763       C  0.60777555  0.90485120  0.11741971    -0.11500
C1764       C  0.63581764  0.90485316  0.13444360    -0.13100
C1765       C  0.66547746  0.96293991  0.01608411    -0.11500
C1766       C  0.68972602  0.97864471  0.00346664    -0.13100
C1767       C  0.41555825  0.83788654  0.98565650    -0.11500
C1768       C  0.43984051  0.85360269  0.99825192    -0.13100
C1769       C  0.35042364  0.94470309  0.08264497    -0.11500
C1770       C  0.39332246  0.93538937  0.08262167    -0.13100
C1771       C  0.88146232  0.70167466  0.28396515    -0.11500
C1772       C  0.86223453  0.67846400  0.28393505    -0.13100
C1773       C  0.74883149  0.51410670  0.25531360    -0.11500
C1774       C  0.74534616  0.99089590  0.24653069    -0.13100
C1775       C  0.68966637  0.65143960  0.24809267    -0.11500
C1776       C  0.66541077  0.66715379  0.23548684    -0.13100
C1777       C  0.64318972  0.56977844  0.33259883    -0.11500
C1778       C  0.60027831  0.56048137  0.33264904    -0.13100
C1779       C  0.91549128  0.54225906  0.26612066    -0.11500
C1780       C  0.93980857  0.52655487  0.25352572    -0.13100
C1781       C  0.86157876  0.70204828  0.46782232    -0.11500
C1782       C  0.88077599  0.67883111  0.46782126    -0.13100
C1783       C  0.99770728  0.99136277  0.50544001    -0.11500
C1784       C  0.99425125  0.51455888  0.49662661    -0.13100
C1785       C  0.85744800  0.60058447  0.36737649    -0.11500
C1786       C  0.88540901  0.60064133  0.38442456    -0.13100
C1787       C  0.05339302  0.65190751  0.50355833    -0.11500
C1788       C  0.07766755  0.66763232  0.51614567    -0.13100
C1789       C  0.14265243  0.56080032  0.41909479    -0.11500
C1790       C  0.09975469  0.57011152  0.41915172    -0.13100
C1791       C  0.82763048  0.54264872  0.48576494    -0.11500
C1792       C  0.80337226  0.52692321  0.49835728    -0.13100
loop_ 
_geom_bond_atom_site_label_1 
_geom_bond_atom_site_label_2 
_geom_bond_distance 
_geom_bond_site_symmetry_2 
_ccdc_geom_bond_type 
O1           C16   1.259       .  A
O1           Al9   1.895       .  S
C2           O12   1.259       .  A
C2            O3   1.265       .  A
C2          C894   1.444       .  S
O3           Al5   1.939   1_455  S
O4            C6   1.258       .  A
O4           Al5   1.878       .  S
Al5          O13   1.887       .  S
Al5          O15   1.922       .  S
Al5          O14   1.783       .  S
C6           O19   1.266       .  A
C6          C888   1.424       .  S
O7           C17   1.257       .  A
O7           Al9   1.890   1_455  S
O8           C21   1.258       .  A
O8          Al18   1.878       .  S
Al9          O22   1.929       .  S
Al9          O19   1.930       .  S
Al9          O14   1.781       .  S
O10          C17   1.264       .  A
O10         Al18   1.932   1_455  S
O11          C20   1.269       .  A
O11         Al18   1.951       .  S
O12         Al18   1.898   1_455  S
O13          C20   1.258       .  A
O14         Al18   1.780       .  S
O15          C16   1.260       .  A
C16         C895   1.435       .  S
C17         C891   1.438       .  S
C20         C890   1.444       .  S
C21          O22   1.265       .  A
C21         C886   1.427       .  S
O23          C38   1.259       .  A
O23         Al31   1.895       .  S
C24          O34   1.259       .  A
C24          O25   1.265       .  A
C24         C881   1.445       .  S
O25         Al27   1.939       .  S
O26          C28   1.258       .  A
O26         Al27   1.878       .  S
Al27         O35   1.887       .  S
Al27         O37   1.923       .  S
Al27         O36   1.783       .  S
C28          O41   1.266       .  A
C28         C877   1.424       .  S
O29          C39   1.257       .  A
O29         Al31   1.891       .  S
O30          C43   1.258       .  A
O30         Al40   1.878       .  S
Al31         O44   1.930       .  S
Al31         O41   1.930       .  S
Al31         O36   1.781       .  S
O32          C39   1.263       .  A
O32         Al40   1.932       .  S
O33          C42   1.269       .  A
O33         Al40   1.951       .  S
O34         Al40   1.898       .  S
O35          C42   1.258       .  A
O36         Al40   1.780       .  S
O37          C38   1.261       .  A
C38         C883   1.436       .  S
C39         C879   1.438       .  S
C42         C889   1.444       .  S
C43          O44   1.265       .  A
C43         C876   1.427       .  S
O45          C60   1.265       .  A
O45         Al53   1.930       .  S
C46          O56   1.265       .  A
C46          O47   1.259       .  A
C46         C874   1.445       .  S
O47         Al49   1.899       .  S
O48          C50   1.264       .  A
O48         Al49   1.932       .  S
Al49         O57   1.952       .  S
Al49         O59   1.878       .  S
Al49         O58   1.781       .  S
C50          O63   1.257       .  A
C50         C872   1.438   1_554  S
O51          C61   1.266       .  A
O51         Al53   1.930       .  S
O52          C65   1.260       .  A
O52         Al62   1.923       .  S
Al53         O66   1.895       .  S
Al53         O63   1.891       .  S
Al53         O58   1.781       .  S
O54          C61   1.258       .  A
O54         Al62   1.879       .  S
O55          C64   1.258       .  A
O55         Al62   1.887       .  S
O56         Al62   1.939       .  S
O57          C64   1.269       .  A
O58         Al62   1.783       .  S
O59          C60   1.258       .  A
C60         C863   1.427       .  S
C61         C866   1.425       .  S
C64         C867   1.444       .  S
C65          O66   1.259       .  A
C65         C869   1.435       .  S
O67          C82   1.265       .  A
O67         Al75   1.930       .  S
C68          O78   1.265       .  A
C68          O69   1.259       .  A
C68         C861   1.444       .  S
O69         Al71   1.898       .  S
O70          C72   1.264       .  A
O70         Al71   1.932       .  S
Al71         O79   1.952       .  S
Al71         O81   1.878       .  S
Al71         O80   1.780       .  S
C72          O85   1.257       .  A
C72         C860   1.438       .  S
O73          C83   1.266       .  A
O73         Al75   1.930       .  S
O74          C87   1.260       .  A
O74         Al84   1.923       .  S
Al75         O88   1.895       .  S
Al75         O85   1.890       .  S
Al75         O80   1.781       .  S
O76          C83   1.258       .  A
O76         Al84   1.878       .  S
O77          C86   1.258       .  A
O77         Al84   1.887       .  S
O78         Al84   1.939       .  S
O79          C86   1.269       .  A
O80         Al84   1.783       .  S
O81          C82   1.258       .  A
C82         C856   1.427       .  S
C83         C878   1.424       .  S
C86         C868   1.444       .  S
C87          O88   1.259       .  A
C87         C857   1.436       .  S
O89         C104   1.259       .  A
O89         Al97   1.895       .  S
C90         O100   1.259       .  A
C90          O91   1.265       .  A
C90         C851   1.444       .  S
O91         Al93   1.939       .  S
O92          C94   1.258       .  A
O92         Al93   1.879       .  S
Al93        O101   1.887       .  S
Al93        O103   1.922       .  S
Al93        O102   1.783       .  S
C94         O107   1.266       .  A
C94         C846   1.424       .  S
O95         C105   1.257       .  A
O95         Al97   1.891       .  S
O96         C109   1.258       .  A
O96        Al106   1.878       .  S
Al97        O110   1.930       .  S
Al97        O107   1.930       .  S
Al97        O102   1.781       .  S
O98         C105   1.264       .  A
O98        Al106   1.932       .  S
O99         C108   1.269       .  A
O99        Al106   1.952       .  S
O100       Al106   1.898       .  S
O101        C108   1.258       .  A
O102       Al106   1.780       .  S
O103        C104   1.261       .  A
C104        C854   1.435       .  S
C105        C849   1.438       .  S
C108        C847   1.444       .  S
C109        O110   1.265       .  A
C109        C843   1.427       .  S
O111        C126   1.259       .  A
O111       Al119   1.895       .  S
C112        O122   1.259       .  A
C112        O113   1.265       .  A
C112        C839   1.444       .  S
O113       Al115   1.939       .  S
O114        C116   1.258       .  A
O114       Al115   1.879       .  S
Al115       O123   1.888       .  S
Al115       O125   1.922       .  S
Al115       O124   1.783       .  S
C116        O129   1.266       .  A
C116        C865   1.425       .  S
O117        C127   1.257       .  A
O117       Al119   1.891       .  S
O118        C131   1.258       .  A
O118       Al128   1.877       .  S
Al119       O132   1.930       .  S
Al119       O129   1.930       .  S
Al119       O124   1.781       .  S
O120        C127   1.264       .  A
O120       Al128   1.932       .  S
O121        C130   1.269       .  A
O121       Al128   1.952       .  S
O122       Al128   1.898       .  S
O123        C130   1.258       .  A
O124       Al128   1.780       .  S
O125        C126   1.260       .  A
C126        C841   1.435       .  S
C127        C837   1.438   1_556  S
C130        C848   1.444       .  S
C131        O132   1.265       .  A
C131        C836   1.427       .  S
O133        C148   1.265       .  A
O133       Al141   1.930       .  S
C134        O144   1.265       .  A
C134        O135   1.259       .  A
C134        C833   1.444       .  S
O135       Al137   1.898       .  S
O136        C138   1.264       .  A
O136       Al137   1.932       .  S
Al137       O145   1.952       .  S
Al137       O147   1.878       .  S
Al137       O146   1.780       .  S
C138        O151   1.257       .  A
C138        C831   1.438       .  S
O139        C149   1.266       .  A
O139       Al141   1.930       .  S
O140        C153   1.260       .  A
O140       Al150   1.922       .  S
Al141       O154   1.895       .  S
Al141       O151   1.891       .  S
Al141       O146   1.781       .  S
O142        C149   1.258       .  A
O142       Al150   1.879       .  S
O143        C152   1.258       .  A
O143       Al150   1.887       .  S
O144       Al150   1.938       .  S
O145        C152   1.269       .  A
O146       Al150   1.783       .  S
O147        C148   1.258       .  A
C148        C825   1.427       .  S
C149        C845   1.424       .  S
C152        C827   1.444       .  S
C153        O154   1.259       .  A
C153        C829   1.435       .  S
O155        C170   1.265       .  A
O155       Al163   1.930       .  S
C156        O166   1.265       .  A
C156        O157   1.259       .  A
C156        C823   1.445       .  S
O157       Al159   1.899   1_655  S
O158        C160   1.263       .  A
O158       Al159   1.932   1_655  S
Al159       O167   1.951       .  S
Al159       O169   1.878       .  S
Al159       O168   1.780       .  S
C160        O173   1.257       .  A
C160        C822   1.438       .  S
O161        C171   1.266       .  A
O161       Al163   1.930       .  S
O162        C175   1.261       .  A
O162       Al172   1.923       .  S
Al163       O176   1.895       .  S
Al163       O173   1.890   1_455  S
Al163       O168   1.781       .  S
O164        C171   1.258   1_655  A
O164       Al172   1.878   1_655  S
O165        C174   1.258       .  A
O165       Al172   1.887       .  S
O166       Al172   1.939   1_655  S
O167        C174   1.269       .  A
O168       Al172   1.783       .  S
O169        C170   1.258       .  A
C170        C817   1.427       .  S
C171        C887   1.424   1_455  S
C174        C828   1.444       .  S
C175        O176   1.259       .  A
C175        C819   1.436       .  S
O177        C192   1.265       .  A
O177      Al1081   1.930   1_545  S
C178        O188   1.265       .  A
C178        O179   1.259       .  A
C178        C873   1.445       .  S
O179       Al181   1.898       .  S
O180        C182   1.264       .  A
O180      Al1077   1.932   1_545  S
Al181       O189   1.952       .  S
Al181      O1076   1.932       .  S
Al181      O1087   1.878       .  S
Al181       O190   1.780       .  S
C182       O1091   1.257   1_545  A
C182        C842   1.438   1_554  S
O183        C193   1.266       .  A
O183       Al185   1.929       .  S
O184        C197   1.260       .  A
O184       Al194   1.923       .  S
Al185       O198   1.895       .  S
Al185       O195   1.890       .  S
Al185      O1073   1.930       .  S
Al185       O190   1.781       .  S
O186        C193   1.258       .  A
O186       Al194   1.878       .  S
O187        C196   1.258       .  A
O187       Al194   1.888       .  S
O188       Al194   1.939       .  S
O189        C196   1.269       .  A
O190       Al194   1.783       .  S
O191        C192   1.258       .  A
O191      Al1077   1.878   1_545  S
C192        C810   1.427       .  S
C193        C811   1.424       .  S
O195       C1078   1.257       .  A
C196        C813   1.444       .  S
C197        O198   1.259       .  A
C197        C815   1.436       .  S
O199        C214   1.265       .  A
O199      Al1103   1.930   1_545  S
C200        O210   1.265       .  A
C200        O201   1.259       .  A
C200        C862   1.444       .  S
O201       Al203   1.898   1_655  S
O202        C204   1.264       .  A
O202      Al1099   1.932   1_645  S
Al203       O211   1.952       .  S
Al203      O1098   1.932   1_455  S
Al203      O1109   1.878       .  S
Al203       O212   1.780       .  S
C204       O1113   1.257   1_545  A
C204        C884   1.438       .  S
O205        C215   1.266       .  A
O205       Al207   1.930       .  S
O206        C219   1.260       .  A
O206       Al216   1.922       .  S
Al207       O220   1.895       .  S
Al207       O217   1.891   1_455  S
Al207      O1095   1.930       .  S
Al207       O212   1.781       .  S
O208        C215   1.258   1_655  A
O208       Al216   1.879   1_655  S
O209        C218   1.258       .  A
O209       Al216   1.887       .  S
O210       Al216   1.938   1_655  S
O211        C218   1.269       .  A
O212       Al216   1.783       .  S
O213        C214   1.258       .  A
O213      Al1099   1.878   1_545  S
C214        C803   1.427       .  S
C215        C806   1.425   1_455  S
O217       C1100   1.257       .  A
C218        C814   1.444       .  S
C219        O220   1.259       .  A
C219        C807   1.435       .  S
O221        C236   1.259       .  A
O221       Al229   1.895       .  S
C222        O232   1.259       .  A
C222        O223   1.265       .  A
C222        C801   1.445       .  S
O223       Al225   1.939   1_455  S
O224        C226   1.258       .  A
O224       Al225   1.879       .  S
Al225       O233   1.887       .  S
Al225       O235   1.923       .  S
Al225       O234   1.783       .  S
C226        O239   1.266       .  A
C226        C805   1.425       .  S
O227        C237   1.257       .  A
O227       Al229   1.891   1_455  S
O228        C241   1.258       .  A
O228       Al238   1.878       .  S
Al229       O242   1.930       .  S
Al229       O239   1.930       .  S
Al229       O234   1.781       .  S
O230        C237   1.264       .  A
O230       Al238   1.933   1_455  S
O231        C240   1.269       .  A
O231       Al238   1.953       .  S
O232       Al238   1.898   1_455  S
O233        C240   1.258       .  A
O234       Al238   1.780       .  S
O235        C236   1.261       .  A
C236        C859   1.435       .  S
C237        C799   1.438       .  S
C240        C797   1.445       .  S
C241        O242   1.265       .  A
C241        C875   1.427       .  S
O243        C258   1.259       .  A
O243       Al251   1.895       .  S
C244        O254   1.259       .  A
C244        O245   1.265       .  A
C244        C795   1.445       .  S
O245       Al247   1.939       .  S
O246        C248   1.258       .  A
O246       Al247   1.879       .  S
Al247       O255   1.888       .  S
Al247       O257   1.922       .  S
Al247       O256   1.783       .  S
C248        O261   1.266       .  A
C248        C792   1.424       .  S
O249        C259   1.257       .  A
O249       Al251   1.891       .  S
O250        C263   1.258       .  A
O250       Al260   1.878       .  S
Al251       O264   1.930       .  S
Al251       O261   1.930       .  S
Al251       O256   1.781       .  S
O252        C259   1.263       .  A
O252       Al260   1.932       .  S
O253        C262   1.269       .  A
O253       Al260   1.952       .  S
O254       Al260   1.898       .  S
O255        C262   1.258       .  A
O256       Al260   1.780       .  S
O257        C258   1.260       .  A
C258        C821   1.435       .  S
C259        C793   1.438       .  S
C262        C798   1.445       .  S
C263        O264   1.265       .  A
C263        C885   1.427       .  S
O265        C280   1.265       .  A
O265      Al1169   1.930   1_545  S
C266        O276   1.265       .  A
C266        O267   1.259       .  A
C266        C834   1.444       .  S
O267       Al269   1.898       .  S
O268        C270   1.264       .  A
O268      Al1165   1.932   1_545  S
Al269       O277   1.952       .  S
Al269      O1164   1.932       .  S
Al269      O1175   1.878       .  S
Al269       O278   1.780       .  S
C270       O1179   1.257   1_545  A
C270        C853   1.438       .  S
O271        C281   1.266       .  A
O271       Al273   1.930       .  S
O272        C285   1.260       .  A
O272       Al282   1.922       .  S
Al273       O286   1.895       .  S
Al273       O283   1.890       .  S
Al273      O1161   1.930       .  S
Al273       O278   1.781       .  S
O274        C281   1.258       .  A
O274       Al282   1.878       .  S
O275        C284   1.258       .  A
O275       Al282   1.887       .  S
O276       Al282   1.938       .  S
O277        C284   1.269       .  A
O278       Al282   1.783       .  S
O279        C280   1.258       .  A
O279      Al1165   1.878   1_545  S
C280        C784   1.427       .  S
C281        C785   1.424       .  S
O283       C1166   1.257       .  A
C284        C787   1.444       .  S
C285        O286   1.259       .  A
C285        C790   1.435       .  S
O287        C302   1.265       .  A
O287      Al1191   1.929   1_545  S
C288        O298   1.265       .  A
C288        O289   1.259       .  A
C288        C824   1.445       .  S
O289       Al291   1.899       .  S
O290        C292   1.264       .  A
O290      Al1187   1.931   1_545  S
Al291       O299   1.951       .  S
Al291      O1186   1.932       .  S
Al291      O1197   1.878       .  S
Al291       O300   1.781       .  S
C292       O1201   1.257   1_545  A
C292        C896   1.438       .  S
O293        C303   1.266       .  A
O293       Al295   1.930       .  S
O294        C307   1.260       .  A
O294       Al304   1.922       .  S
Al295       O308   1.895       .  S
Al295       O305   1.890       .  S
Al295      O1183   1.929       .  S
Al295       O300   1.781       .  S
O296        C303   1.258       .  A
O296       Al304   1.879       .  S
O297        C306   1.258       .  A
O297       Al304   1.887       .  S
O298       Al304   1.939       .  S
O299        C306   1.269       .  A
O300       Al304   1.783       .  S
O301        C302   1.258       .  A
O301      Al1187   1.878   1_545  S
C302        C780   1.427       .  S
C303        C791   1.424       .  S
O305       C1188   1.257       .  A
C306        C788   1.444       .  S
C307        O308   1.259       .  A
C307        C781   1.435       .  S
O309        C324   1.259       .  A
O309       Al317   1.895       .  S
C310        O320   1.259       .  A
C310        O311   1.265       .  A
C310        C778   1.444       .  S
O311       Al313   1.939       .  S
O312        C314   1.258       .  A
O312       Al313   1.878       .  S
Al313       O321   1.887       .  S
Al313       O323   1.922       .  S
Al313       O322   1.783       .  S
C314        O327   1.266       .  A
C314        C786   1.424       .  S
O315        C325   1.257       .  A
O315       Al317   1.891       .  S
O316        C329   1.258       .  A
O316       Al326   1.877       .  S
Al317       O330   1.930       .  S
Al317       O327   1.930       .  S
Al317       O322   1.781       .  S
O318        C325   1.264       .  A
O318       Al326   1.932       .  S
O319        C328   1.269       .  A
O319       Al326   1.951       .  S
O320       Al326   1.898       .  S
O321        C328   1.258       .  A
O322       Al326   1.780       .  S
O323        C324   1.260       .  A
C324        C832   1.435       .  S
C325        C776   1.438       .  S
C328        C773   1.444       .  S
C329        O330   1.265       .  A
C329        C844   1.427       .  S
O331        C346   1.259       .  A
O331       Al339   1.895       .  S
C332        O342   1.259       .  A
C332        O333   1.265       .  A
C332        C771   1.445       .  S
O333       Al335   1.939       .  S
O334        C336   1.258       .  A
O334       Al335   1.878       .  S
Al335       O343   1.887       .  S
Al335       O345   1.923       .  S
Al335       O344   1.783       .  S
C336        O349   1.266       .  A
C336        C812   1.424       .  S
O337        C347   1.257       .  A
O337       Al339   1.890       .  S
O338        C351   1.258       .  A
O338       Al348   1.878       .  S
Al339       O352   1.929       .  S
Al339       O349   1.929       .  S
Al339       O344   1.781       .  S
O340        C347   1.263       .  A
O340       Al348   1.931       .  S
O341        C350   1.269       .  A
O341       Al348   1.951       .  S
O342       Al348   1.898       .  S
O343        C350   1.258       .  A
O344       Al348   1.780       .  S
O345        C346   1.260       .  A
C346        C871   1.436       .  S
C347        C769   1.438   1_556  S
C350        C774   1.444       .  S
C351        O352   1.265       .  A
C351        C835   1.427       .  S
O353        C368   1.265       .  A
O353       Al361   1.930       .  S
C354        O364   1.265       .  A
C354        O355   1.259       .  A
C354        C767   1.444       .  S
O355       Al357   1.898       .  S
O356        C358   1.264       .  A
O356       Al357   1.932       .  S
Al357       O365   1.952       .  S
Al357       O367   1.877       .  S
Al357       O366   1.780       .  S
C358        O371   1.257       .  A
C358        C765   1.438   1_554  S
O359        C369   1.266       .  A
O359       Al361   1.930       .  S
O360        C373   1.260       .  A
O360       Al370   1.922       .  S
Al361       O374   1.895       .  S
Al361       O371   1.890       .  S
Al361       O366   1.781       .  S
O362        C369   1.258       .  A
O362       Al370   1.878       .  S
O363        C372   1.258       .  A
O363       Al370   1.887       .  S
O364       Al370   1.939       .  S
O365        C372   1.269       .  A
O366       Al370   1.783       .  S
O367        C368   1.258       .  A
C368        C864   1.427       .  S
C369        C762   1.424       .  S
C372        C764   1.444       .  S
C373        O374   1.259       .  A
C373        C838   1.435       .  S
O375        C390   1.265       .  A
O375       Al383   1.930       .  S
C376        O386   1.265       .  A
C376        O377   1.259       .  A
C376        C760   1.445       .  S
O377       Al379   1.899       .  S
O378        C380   1.264       .  A
O378       Al379   1.932       .  S
Al379       O387   1.952       .  S
Al379       O389   1.878       .  S
Al379       O388   1.781       .  S
C380        O393   1.257       .  A
C380        C758   1.438       .  S
O381        C391   1.266       .  A
O381       Al383   1.930       .  S
O382        C395   1.260       .  A
O382       Al392   1.922       .  S
Al383       O396   1.895       .  S
Al383       O393   1.891       .  S
Al383       O388   1.781       .  S
O384        C391   1.258       .  A
O384       Al392   1.879       .  S
O385        C394   1.258       .  A
O385       Al392   1.887       .  S
O386       Al392   1.939       .  S
O387        C394   1.269       .  A
O388       Al392   1.783       .  S
O389        C390   1.258       .  A
C390        C855   1.427       .  S
C391        C756   1.425       .  S
C394        C763   1.444       .  S
C395        O396   1.259       .  A
C395        C880   1.435       .  S
O397        C412   1.259       .  A
O397       Al405   1.895       .  S
C398        O408   1.259       .  A
C398        O399   1.265       .  A
C398        C893   1.444       .  S
O399       Al401   1.939       .  S
O400        C402   1.258       .  A
O400       Al401   1.879       .  S
Al401       O409   1.888       .  S
Al401       O411   1.922       .  S
Al401       O410   1.783       .  S
C402        O415   1.266       .  A
C402        C750   1.425       .  S
O403       C1309   1.257   1_545  A
O403       Al405   1.891       .  S
O404        C417   1.258       .  A
O404      Al1310   1.878       .  S
Al405       O415   1.930       .  S
Al405      O1314   1.930   1_545  S
Al405       O410   1.781       .  S
O406        C413   1.264       .  A
O406      Al1310   1.932       .  S
O407        C416   1.269       .  A
O407       Al414   1.952       .  S
O408       Al414   1.898       .  S
O409        C416   1.258       .  A
O410       Al414   1.780       .  S
O411        C412   1.260       .  A
C412        C753   1.435       .  S
C413       O1299   1.257       .  A
C413        C820   1.438       .  S
Al414      O1300   1.878   1_545  S
Al414      O1302   1.932   1_545  S
C416        C752   1.445       .  S
C417        O418   1.265       .  A
C417        C747   1.427       .  S
O418      Al1301   1.930       .  S
O419        C434   1.259       .  A
O419       Al427   1.895       .  S
C420        O430   1.259       .  A
C420        O421   1.265       .  A
C420        C882   1.445       .  S
O421       Al423   1.939       .  S
O422        C424   1.258       .  A
O422       Al423   1.879       .  S
Al423       O431   1.888       .  S
Al423       O433   1.922       .  S
Al423       O432   1.783       .  S
C424        O437   1.266       .  A
C424        C755   1.425       .  S
O425       C1331   1.257   1_545  A
O425       Al427   1.891       .  S
O426        C439   1.258       .  A
O426      Al1332   1.878       .  S
Al427       O437   1.930       .  S
Al427      O1336   1.930   1_545  S
Al427       O432   1.781       .  S
O428        C435   1.264       .  A
O428      Al1332   1.932       .  S
O429        C438   1.269       .  A
O429       Al436   1.952       .  S
O430       Al436   1.898       .  S
O431        C438   1.258       .  A
O432       Al436   1.781       .  S
O433        C434   1.261       .  A
C434        C746   1.435       .  S
C435       O1321   1.257       .  A
C435        C858   1.438       .  S
Al436      O1322   1.878   1_545  S
Al436      O1324   1.932   1_545  S
C438        C751   1.445       .  S
C439        O440   1.265       .  A
C439        C744   1.427       .  S
O440      Al1323   1.930       .  S
O441        C456   1.265       .  A
O441       Al449   1.930       .  S
C442        O452   1.265       .  A
C442        O443   1.259       .  A
C442        C741   1.444       .  S
O443       Al445   1.899   1_655  S
O444        C446   1.263       .  A
O444       Al445   1.931   1_655  S
Al445       O453   1.951       .  S
Al445       O455   1.878       .  S
Al445       O454   1.780       .  S
C446        O459   1.257       .  A
C446        C740   1.437       .  S
O447        C457   1.266       .  A
O447       Al449   1.929       .  S
O448        C461   1.260       .  A
O448       Al458   1.923       .  S
Al449       O462   1.895       .  S
Al449       O459   1.890   1_455  S
Al449       O454   1.781       .  S
O450        C457   1.258   1_655  A
O450       Al458   1.878   1_655  S
O451        C460   1.258       .  A
O451       Al458   1.887       .  S
O452       Al458   1.939   1_655  S
O453        C460   1.269       .  A
O454       Al458   1.783       .  S
O455        C456   1.258       .  A
C456        C826   1.427       .  S
C457        C736   1.424   1_455  S
C460        C737   1.444       .  S
C461        O462   1.259       .  A
C461        C850   1.436       .  S
O463        C478   1.265       .  A
O463       Al471   1.930       .  S
C464        O474   1.265       .  A
C464        O465   1.259       .  A
C464        C734   1.444       .  S
O465       Al467   1.898       .  S
O466        C468   1.264       .  A
O466       Al467   1.932       .  S
Al467       O475   1.952       .  S
Al467       O477   1.878       .  S
Al467       O476   1.780       .  S
C468        O481   1.257       .  A
C468        C731   1.438       .  S
O469        C479   1.266       .  A
O469       Al471   1.930       .  S
O470        C483   1.260       .  A
O470       Al480   1.922       .  S
Al471       O484   1.895       .  S
Al471       O481   1.891       .  S
Al471       O476   1.781       .  S
O472        C479   1.258       .  A
O472       Al480   1.879       .  S
O473        C482   1.258       .  A
O473       Al480   1.887       .  S
O474       Al480   1.938       .  S
O475        C482   1.269       .  A
O476       Al480   1.783       .  S
O477        C478   1.258       .  A
C478        C818   1.427       .  S
C479        C749   1.425       .  S
C482        C738   1.444       .  S
C483        O484   1.259       .  A
C483        C892   1.435       .  S
O485        C500   1.259       .  A
O485       Al493   1.895       .  S
C486        O496   1.259       .  A
C486        O487   1.265       .  A
C486        C852   1.444       .  S
O487       Al489   1.939   1_455  S
O488        C490   1.258       .  A
O488       Al489   1.878       .  S
Al489       O497   1.887       .  S
Al489       O499   1.922       .  S
Al489       O498   1.783       .  S
C490        O503   1.266       .  A
C490        C735   1.424       .  S
O491       C1397   1.257   1_545  A
O491       Al493   1.890   1_455  S
O492        C505   1.258       .  A
O492      Al1398   1.878       .  S
Al493       O503   1.930       .  S
Al493      O1402   1.930   1_545  S
Al493       O498   1.781       .  S
O494        C501   1.263       .  A
O494      Al1398   1.931   1_455  S
O495        C504   1.269       .  A
O495       Al502   1.951       .  S
O496       Al502   1.898   1_455  S
O497        C504   1.258       .  A
O498       Al502   1.780       .  S
O499        C500   1.260       .  A
C500        C730   1.436       .  S
C501       O1387   1.257       .  A
C501        C830   1.437       .  S
Al502      O1388   1.878   1_545  S
Al502      O1390   1.931   1_645  S
C504        C727   1.443       .  S
C505        O506   1.265       .  A
C505        C726   1.427       .  S
O506      Al1389   1.930       .  S
O507        C522   1.259       .  A
O507       Al515   1.895       .  S
C508        O518   1.259       .  A
C508        O509   1.265       .  A
C508        C840   1.444       .  S
O509       Al511   1.939       .  S
O510        C512   1.258       .  A
O510       Al511   1.878       .  S
Al511       O519   1.886       .  S
Al511       O521   1.923       .  S
Al511       O520   1.783       .  S
C512        O525   1.266       .  A
C512        C761   1.424       .  S
O513       C1419   1.257   1_545  A
O513       Al515   1.890       .  S
O514        C527   1.258       .  A
O514      Al1420   1.878       .  S
Al515       O525   1.930       .  S
Al515      O1424   1.930   1_545  S
Al515       O520   1.781       .  S
O516        C523   1.264       .  A
O516      Al1420   1.932       .  S
O517        C526   1.269       .  A
O517       Al524   1.951       .  S
O518       Al524   1.898       .  S
O519        C526   1.258       .  A
O520       Al524   1.780       .  S
O521        C522   1.260       .  A
C522        C723   1.435       .  S
C523       O1409   1.257       .  A
C523        C870   1.438   1_556  S
Al524      O1410   1.878   1_545  S
Al524      O1412   1.932   1_545  S
C526        C728   1.443       .  S
C527        O528   1.265       .  A
C527        C722   1.427       .  S
O528      Al1411   1.930       .  S
O529        C544   1.259       .  A
O529       Al537   1.895       .  S
C530        O540   1.259       .  A
C530        O531   1.265       .  A
C530        C772   1.445       .  S
O531       Al533   1.939   1_455  S
O532        C534   1.258       .  A
O532       Al533   1.879       .  S
Al533       O541   1.888       .  S
Al533       O543   1.923       .  S
Al533       O542   1.783       .  S
C534        O547   1.266       .  A
C534        C717   1.425       .  S
O535        C545   1.257       .  A
O535       Al537   1.891   1_455  S
O536        C549   1.258       .  A
O536       Al546   1.878       .  S
Al537       O550   1.930       .  S
Al537       O547   1.930       .  S
Al537       O542   1.781       .  S
O538        C545   1.264       .  A
O538       Al546   1.932   1_455  S
O539        C548   1.269       .  A
O539       Al546   1.952       .  S
O540       Al546   1.898   1_455  S
O541        C548   1.258       .  A
O542       Al546   1.780       .  S
O543        C544   1.261       .  A
C544        C766   1.435       .  S
C545        C816   1.438   1_556  S
C548        C720   1.444       .  S
C549        O550   1.265       .  A
C549        C721   1.427       .  S
O551        C566   1.259       .  A
O551       Al559   1.895       .  S
C552        O562   1.259       .  A
C552        O553   1.265       .  A
C552        C777   1.444       .  S
O553       Al555   1.939       .  S
O554        C556   1.258       .  A
O554       Al555   1.879       .  S
Al555       O563   1.887       .  S
Al555       O565   1.922       .  S
Al555       O564   1.783       .  S
C556        O569   1.266       .  A
C556        C715   1.425       .  S
O557        C567   1.257       .  A
O557       Al559   1.890       .  S
O558        C571   1.258       .  A
O558       Al568   1.878       .  S
Al559       O572   1.930       .  S
Al559       O569   1.930       .  S
Al559       O564   1.781       .  S
O560        C567   1.264       .  A
O560       Al568   1.932       .  S
O561        C570   1.269       .  A
O561       Al568   1.952       .  S
O562       Al568   1.898       .  S
O563        C570   1.258       .  A
O564       Al568   1.780       .  S
O565        C566   1.260       .  A
C566        C739   1.435       .  S
C567        C789   1.438       .  S
C570        C719   1.444       .  S
C571        O572   1.265       .  A
C571        C725   1.427       .  S
O573        C588   1.265       .  A
O573       Al581   1.930       .  S
C574        O584   1.265       .  A
C574        O575   1.259       .  A
C574        C768   1.444       .  S
O575       Al577   1.898   1_655  S
O576        C578   1.264       .  A
O576       Al577   1.932   1_655  S
Al577       O585   1.952       .  S
Al577       O587   1.878       .  S
Al577       O586   1.780       .  S
C578        O591   1.257       .  A
C578        C724   1.438   1_554  S
O579        C589   1.266       .  A
O579       Al581   1.930       .  S
O580        C593   1.260       .  A
O580       Al590   1.922       .  S
Al581       O594   1.895       .  S
Al581       O591   1.891   1_455  S
Al581       O586   1.781       .  S
O582        C589   1.258   1_655  A
O582       Al590   1.879   1_655  S
O583        C592   1.258       .  A
O583       Al590   1.887       .  S
O584       Al590   1.938   1_655  S
O585        C592   1.269       .  A
O586       Al590   1.783       .  S
O587        C588   1.258       .  A
C588        C809   1.427       .  S
C589        C718   1.425   1_455  S
C592        C713   1.444       .  S
C593        O594   1.259       .  A
C593        C770   1.435       .  S
O595        C610   1.265       .  A
O595       Al603   1.930       .  S
C596        O606   1.265       .  A
C596        O597   1.259       .  A
C596        C759   1.445       .  S
O597       Al599   1.898       .  S
O598        C600   1.264       .  A
O598       Al599   1.932       .  S
Al599       O607   1.952       .  S
Al599       O609   1.878       .  S
Al599       O608   1.780       .  S
C600        O613   1.257       .  A
C600        C745   1.438       .  S
O601        C611   1.266       .  A
O601       Al603   1.930       .  S
O602        C615   1.261       .  A
O602       Al612   1.923       .  S
Al603       O616   1.895       .  S
Al603       O613   1.890       .  S
Al603       O608   1.781       .  S
O604        C611   1.258       .  A
O604       Al612   1.878       .  S
O605        C614   1.258       .  A
O605       Al612   1.888       .  S
O606       Al612   1.939       .  S
O607        C614   1.269       .  A
O608       Al612   1.783       .  S
O609        C610   1.258       .  A
C610        C804   1.427       .  S
C611        C712   1.424       .  S
C614        C714   1.444       .  S
C615        O616   1.259       .  A
C615        C800   1.436       .  S
O617        C632   1.259       .  A
O617       Al625   1.895       .  S
C618        O628   1.259       .  A
C618        O619   1.265       .  A
C618        C802   1.445       .  S
O619       Al621   1.939       .  S
O620        C622   1.258       .  A
O620       Al621   1.878       .  S
Al621       O629   1.888       .  S
Al621       O631   1.923       .  S
Al621       O630   1.783       .  S
C622        O635   1.266       .  A
C622        C711   1.424       .  S
O623        C633   1.257       .  A
O623       Al625   1.890       .  S
O624        C637   1.258       .  A
O624       Al634   1.878       .  S
Al625       O638   1.930       .  S
Al625       O635   1.930       .  S
Al625       O630   1.781       .  S
O626        C633   1.263       .  A
O626       Al634   1.931       .  S
O627        C636   1.269       .  A
O627       Al634   1.951       .  S
O628       Al634   1.898       .  S
O629        C636   1.258       .  A
O630       Al634   1.780       .  S
O631        C632   1.260       .  A
C632        C757   1.436       .  S
C633        C808   1.438       .  S
C636        C710   1.444       .  S
C637        O638   1.265       .  A
C637        C743   1.427       .  S
O639        C654   1.259       .  A
O639       Al647   1.895       .  S
C640        O650   1.259       .  A
C640        O641   1.265       .  A
C640        C796   1.445       .  S
O641       Al643   1.939       .  S
O642        C644   1.258       .  A
O642       Al643   1.878       .  S
Al643       O651   1.887       .  S
Al643       O653   1.923       .  S
Al643       O652   1.783       .  S
C644        O657   1.266       .  A
C644        C707   1.424       .  S
O645        C655   1.257       .  A
O645       Al647   1.891       .  S
O646        C659   1.258       .  A
O646       Al656   1.878       .  S
Al647       O660   1.929       .  S
Al647       O657   1.930       .  S
Al647       O652   1.781       .  S
O648        C655   1.264       .  A
O648       Al656   1.932       .  S
O649        C658   1.269       .  A
O649       Al656   1.952       .  S
O650       Al656   1.899       .  S
O651        C658   1.258       .  A
O652       Al656   1.780       .  S
O653        C654   1.261       .  A
C654        C732   1.435       .  S
C655        C782   1.438       .  S
C658        C709   1.444       .  S
C659        O660   1.265       .  A
C659        C748   1.427       .  S
O661        C676   1.265       .  A
O661       Al669   1.930       .  S
C662        O672   1.265       .  A
C662        O663   1.259       .  A
C662        C742   1.444       .  S
O663       Al665   1.899       .  S
O664        C666   1.264       .  A
O664       Al665   1.932       .  S
Al665       O673   1.951       .  S
Al665       O675   1.878       .  S
Al665       O674   1.781       .  S
C666        O679   1.257       .  A
C666        C729   1.438       .  S
O667        C677   1.266       .  A
O667       Al669   1.930       .  S
O668        C681   1.260       .  A
O668       Al678   1.922       .  S
Al669       O682   1.895       .  S
Al669       O679   1.891       .  S
Al669       O674   1.781       .  S
O670        C677   1.258       .  A
O670       Al678   1.879       .  S
O671        C680   1.258       .  A
O671       Al678   1.887       .  S
O672       Al678   1.939       .  S
O673        C680   1.269       .  A
O674       Al678   1.783       .  S
O675        C676   1.258       .  A
C676        C783   1.427       .  S
C677        C716   1.425       .  S
C680        C706   1.444       .  S
C681        O682   1.259       .  A
C681        C775   1.435       .  S
O683        C698   1.265       .  A
O683       Al691   1.930       .  S
C684        O694   1.265       .  A
C684        O685   1.259       .  A
C684        C733   1.444       .  S
O685       Al687   1.898       .  S
O686        C688   1.264       .  A
O686       Al687   1.932       .  S
Al687       O695   1.952       .  S
Al687       O697   1.877       .  S
Al687       O696   1.780       .  S
C688        O701   1.257       .  A
C688        C754   1.438       .  S
O689        C699   1.266       .  A
O689       Al691   1.930       .  S
O690        C703   1.260       .  A
O690       Al700   1.922       .  S
Al691       O704   1.895       .  S
Al691       O701   1.890       .  S
Al691       O696   1.781       .  S
O692        C699   1.258       .  A
O692       Al700   1.878       .  S
O693        C702   1.258       .  A
O693       Al700   1.887       .  S
O694       Al700   1.938       .  S
O695        C702   1.269       .  A
O696       Al700   1.783       .  S
O697        C698   1.258       .  A
C698        C779   1.427       .  S
C699        C708   1.424       .  S
C702        C705   1.444       .  S
C703        O704   1.259       .  A
C703        C794   1.435       .  S
C705        C706   1.211       .  T
C707        C708   1.200       .  T
C709        C710   1.211       .  T
C711        C712   1.200       .  T
C713        C714   1.211       .  T
C715        C716   1.200       .  T
C717        C718   1.200   1_556  T
C719        C720   1.211       .  T
C721        C722   1.201       .  T
C723        C724   1.207       .  T
C725        C726   1.201       .  T
C727        C728   1.211       .  T
C729        C730   1.207       .  T
C731        C732   1.207       .  T
C733        C734   1.211       .  T
C735        C736   1.200       .  T
C737        C738   1.211       .  T
C739        C740   1.207       .  T
C741        C742   1.211       .  T
C743        C744   1.201       .  T
C745        C746   1.207       .  T
C747        C748   1.201       .  T
C749        C750   1.200       .  T
C751        C752   1.212       .  T
C753        C754   1.207       .  T
C755        C756   1.200       .  T
C757        C758   1.207       .  T
C759        C760   1.211       .  T
C761        C762   1.200   1_556  T
C763        C764   1.211       .  T
C765        C766   1.207       .  T
C767        C768   1.211       .  T
C769        C770   1.207       .  T
C771        C772   1.211       .  T
C773        C774   1.211       .  T
C775        C776   1.207       .  T
C777        C778   1.211       .  T
C779        C780   1.201       .  T
C781        C782   1.207       .  T
C783        C784   1.201       .  T
C785        C786   1.200       .  T
C787        C788   1.211       .  T
C789        C790   1.207       .  T
C791        C792   1.200       .  T
C793        C794   1.207       .  T
C795        C796   1.211       .  T
C797        C798   1.212       .  T
C799        C800   1.207       .  T
C801        C802   1.211       .  T
C803        C804   1.201       .  T
C805        C806   1.200       .  T
C807        C808   1.207       .  T
C809        C810   1.201       .  T
C811        C812   1.200   1_554  T
C813        C814   1.211       .  T
C815        C816   1.207       .  T
C817        C818   1.201       .  T
C819        C820   1.207       .  T
C821        C822   1.207       .  T
C823        C824   1.211       .  T
C825        C826   1.201       .  T
C827        C828   1.211       .  T
C829        C830   1.207       .  T
C831        C832   1.207       .  T
C833        C834   1.211       .  T
C835        C836   1.201       .  T
C837        C838   1.207       .  T
C839        C840   1.211       .  T
C841        C842   1.207       .  T
C843        C844   1.201       .  T
C845       C1742   1.200       .  T
C846       C1741   1.200   1_545  T
C847        C848   1.211       .  T
C849        C850   1.207       .  T
C851        C852   1.211       .  T
C853        C854   1.207       .  T
C855        C856   1.201       .  T
C857        C858   1.207       .  T
C859        C860   1.207       .  T
C861        C862   1.211       .  T
C863        C864   1.201       .  T
C865       C1762   1.200   1_546  T
C866       C1761   1.200   1_554  T
C867        C868   1.211       .  T
C869        C870   1.207       .  T
C871        C872   1.207       .  T
C873        C874   1.211       .  T
C875        C876   1.201       .  T
C877       C1774   1.200   1_545  T
C878       C1773   1.200       .  T
C879        C880   1.207       .  T
C881        C882   1.211       .  T
C883        C884   1.207       .  T
C885        C886   1.201       .  T
C887       C1784   1.200       .  T
C888       C1783   1.200   1_545  T
C889        C890   1.211       .  T
C891        C892   1.207       .  T
C893        C894   1.211       .  T
C895        C896   1.207       .  T
O897        C912   1.259       .  A
O897       Al905   1.895       .  S
C898        O908   1.259       .  A
C898        O899   1.265       .  A
C898       C1790   1.444       .  S
O899       Al901   1.939   1_455  S
O900        C902   1.258       .  A
O900       Al901   1.878       .  S
Al901       O909   1.887       .  S
Al901       O911   1.922       .  S
Al901       O910   1.783       .  S
C902        O915   1.266       .  A
C902       C1784   1.424       .  S
O903        C913   1.257       .  A
O903       Al905   1.890   1_455  S
O904        C917   1.258       .  A
O904       Al914   1.878       .  S
Al905       O918   1.929       .  S
Al905       O915   1.930       .  S
Al905       O910   1.781       .  S
O906        C913   1.264       .  A
O906       Al914   1.932   1_455  S
O907        C916   1.269       .  A
O907       Al914   1.951       .  S
O908       Al914   1.898   1_455  S
O909        C916   1.258       .  A
O910       Al914   1.780       .  S
O911        C912   1.260       .  A
C912       C1791   1.435       .  S
C913       C1787   1.438       .  S
C916       C1786   1.444       .  S
C917        O918   1.265       .  A
C917       C1782   1.427       .  S
O919        C934   1.259       .  A
O919       Al927   1.895       .  S
C920        O930   1.259       .  A
C920        O921   1.265       .  A
C920       C1777   1.445       .  S
O921       Al923   1.939       .  S
O922        C924   1.258       .  A
O922       Al923   1.878       .  S
Al923       O931   1.887       .  S
Al923       O933   1.923       .  S
Al923       O932   1.783       .  S
C924        O937   1.266       .  A
C924       C1773   1.424       .  S
O925        C935   1.257       .  A
O925       Al927   1.891       .  S
O926        C939   1.258       .  A
O926       Al936   1.878       .  S
Al927       O940   1.930       .  S
Al927       O937   1.930       .  S
Al927       O932   1.781       .  S
O928        C935   1.263       .  A
O928       Al936   1.932       .  S
O929        C938   1.269       .  A
O929       Al936   1.951       .  S
O930       Al936   1.898       .  S
O931        C938   1.258       .  A
O932       Al936   1.780       .  S
O933        C934   1.261       .  A
C934       C1779   1.436       .  S
C935       C1775   1.438       .  S
C938       C1785   1.444       .  S
C939        O940   1.265       .  A
C939       C1772   1.427       .  S
O941        C956   1.265       .  A
O941       Al949   1.930       .  S
C942        O952   1.265       .  A
C942        O943   1.259       .  A
C942       C1770   1.445       .  S
O943       Al945   1.899       .  S
O944        C946   1.264       .  A
O944       Al945   1.932       .  S
Al945       O953   1.952       .  S
Al945       O955   1.878       .  S
Al945       O954   1.781       .  S
C946        O959   1.257       .  A
C946       C1768   1.438   1_554  S
O947        C957   1.266       .  A
O947       Al949   1.930       .  S
O948        C961   1.260       .  A
O948       Al958   1.923       .  S
Al949       O962   1.895       .  S
Al949       O959   1.891       .  S
Al949       O954   1.781       .  S
O950        C957   1.258       .  A
O950       Al958   1.879       .  S
O951        C960   1.258       .  A
O951       Al958   1.887       .  S
O952       Al958   1.939       .  S
O953        C960   1.269       .  A
O954       Al958   1.783       .  S
O955        C956   1.258       .  A
C956       C1759   1.427       .  S
C957       C1762   1.425       .  S
C960       C1763   1.444       .  S
C961        O962   1.259       .  A
C961       C1765   1.435       .  S
O963        C978   1.265       .  A
O963       Al971   1.930       .  S
C964        O974   1.265       .  A
C964        O965   1.259       .  A
C964       C1757   1.444       .  S
O965       Al967   1.898       .  S
O966        C968   1.264       .  A
O966       Al967   1.932       .  S
Al967       O975   1.952       .  S
Al967       O977   1.878       .  S
Al967       O976   1.780       .  S
C968        O981   1.257       .  A
C968       C1756   1.438       .  S
O969        C979   1.266       .  A
O969       Al971   1.930       .  S
O970        C983   1.260       .  A
O970       Al980   1.923       .  S
Al971       O984   1.895       .  S
Al971       O981   1.890       .  S
Al971       O976   1.781       .  S
O972        C979   1.258       .  A
O972       Al980   1.878       .  S
O973        C982   1.258       .  A
O973       Al980   1.887       .  S
O974       Al980   1.939       .  S
O975        C982   1.269       .  A
O976       Al980   1.783       .  S
O977        C978   1.258       .  A
C978       C1752   1.427       .  S
C979       C1774   1.424       .  S
C982       C1764   1.444       .  S
C983        O984   1.259       .  A
C983       C1753   1.436       .  S
O985       C1000   1.259       .  A
O985       Al993   1.895       .  S
C986        O996   1.259       .  A
C986        O987   1.265       .  A
C986       C1747   1.444       .  S
O987       Al989   1.939       .  S
O988        C990   1.258       .  A
O988       Al989   1.879       .  S
Al989       O997   1.887       .  S
Al989       O999   1.922       .  S
Al989       O998   1.783       .  S
C990       O1003   1.266       .  A
C990       C1742   1.424       .  S
O991       C1001   1.257       .  A
O991       Al993   1.891       .  S
O992       C1005   1.258       .  A
O992      Al1002   1.878       .  S
Al993      O1006   1.930       .  S
Al993      O1003   1.930       .  S
Al993       O998   1.781       .  S
O994       C1001   1.264       .  A
O994      Al1002   1.932       .  S
O995       C1004   1.269       .  A
O995      Al1002   1.952       .  S
O996      Al1002   1.898       .  S
O997       C1004   1.258       .  A
O998      Al1002   1.780       .  S
O999       C1000   1.261       .  A
C1000      C1750   1.435       .  S
C1001      C1745   1.438       .  S
C1004      C1743   1.444       .  S
C1005      O1006   1.265       .  A
C1005      C1739   1.427       .  S
O1007      C1022   1.259       .  A
O1007     Al1015   1.895       .  S
C1008      O1018   1.259       .  A
C1008      O1009   1.265       .  A
C1008      C1735   1.444       .  S
O1009     Al1011   1.939       .  S
O1010      C1012   1.258       .  A
O1010     Al1011   1.879       .  S
Al1011     O1019   1.888       .  S
Al1011     O1021   1.922       .  S
Al1011     O1020   1.783       .  S
C1012      O1025   1.266       .  A
C1012      C1761   1.425       .  S
O1013      C1023   1.257       .  A
O1013     Al1015   1.891       .  S
O1014      C1027   1.258       .  A
O1014     Al1024   1.877       .  S
Al1015     O1028   1.930       .  S
Al1015     O1025   1.930       .  S
Al1015     O1020   1.781       .  S
O1016      C1023   1.264       .  A
O1016     Al1024   1.932       .  S
O1017      C1026   1.269       .  A
O1017     Al1024   1.952       .  S
O1018     Al1024   1.898       .  S
O1019      C1026   1.258       .  A
O1020     Al1024   1.780       .  S
O1021      C1022   1.260       .  A
C1022      C1737   1.435       .  S
C1023      C1733   1.438   1_556  S
C1026      C1744   1.444       .  S
C1027      O1028   1.265       .  A
C1027      C1732   1.427       .  S
O1029      C1044   1.265       .  A
O1029     Al1037   1.930       .  S
C1030      O1040   1.265       .  A
C1030      O1031   1.259       .  A
C1030      C1729   1.444       .  S
O1031     Al1033   1.898       .  S
O1032      C1034   1.264       .  A
O1032     Al1033   1.932       .  S
Al1033     O1041   1.952       .  S
Al1033     O1043   1.878       .  S
Al1033     O1042   1.780       .  S
C1034      O1047   1.257       .  A
C1034      C1727   1.438       .  S
O1035      C1045   1.266       .  A
O1035     Al1037   1.930       .  S
O1036      C1049   1.260       .  A
O1036     Al1046   1.922       .  S
Al1037     O1050   1.895       .  S
Al1037     O1047   1.891       .  S
Al1037     O1042   1.781       .  S
O1038      C1045   1.258       .  A
O1038     Al1046   1.879       .  S
O1039      C1048   1.258       .  A
O1039     Al1046   1.887       .  S
O1040     Al1046   1.938       .  S
O1041      C1048   1.269       .  A
O1042     Al1046   1.783       .  S
O1043      C1044   1.258       .  A
C1044      C1721   1.427       .  S
C1045      C1741   1.424       .  S
C1048      C1723   1.444       .  S
C1049      O1050   1.259       .  A
C1049      C1725   1.435       .  S
O1051      C1066   1.265       .  A
O1051     Al1059   1.930       .  S
C1052      O1062   1.265       .  A
C1052      O1053   1.259       .  A
C1052      C1719   1.445       .  S
O1053     Al1055   1.899   1_655  S
O1054      C1056   1.263       .  A
O1054     Al1055   1.932   1_655  S
Al1055     O1063   1.951       .  S
Al1055     O1065   1.878       .  S
Al1055     O1064   1.780       .  S
C1056      O1069   1.257       .  A
C1056      C1718   1.438       .  S
O1057      C1067   1.266       .  A
O1057     Al1059   1.930       .  S
O1058      C1071   1.261       .  A
O1058     Al1068   1.923       .  S
Al1059     O1072   1.895       .  S
Al1059     O1069   1.890   1_455  S
Al1059     O1064   1.781       .  S
O1060      C1067   1.258   1_655  A
O1060     Al1068   1.878   1_655  S
O1061      C1070   1.258       .  A
O1061     Al1068   1.887       .  S
O1062     Al1068   1.939   1_655  S
O1063      C1070   1.269       .  A
O1064     Al1068   1.783       .  S
O1065      C1066   1.258       .  A
C1066      C1713   1.427       .  S
C1067      C1783   1.424   1_455  S
C1070      C1724   1.444       .  S
C1071      O1072   1.259       .  A
C1071      C1715   1.436       .  S
O1073      C1088   1.265       .  A
C1074      O1084   1.265       .  A
C1074      O1075   1.259       .  A
C1074      C1769   1.445       .  S
O1075     Al1077   1.898       .  S
O1076      C1078   1.264       .  A
Al1077     O1085   1.952       .  S
Al1077     O1086   1.780       .  S
C1078      C1738   1.438   1_554  S
O1079      C1089   1.266       .  A
O1079     Al1081   1.929       .  S
O1080      C1093   1.261       .  A
O1080     Al1090   1.923       .  S
Al1081     O1094   1.895       .  S
Al1081     O1091   1.890       .  S
Al1081     O1086   1.781       .  S
O1082      C1089   1.258       .  A
O1082     Al1090   1.878       .  S
O1083      C1092   1.258       .  A
O1083     Al1090   1.888       .  S
O1084     Al1090   1.939       .  S
O1085      C1092   1.269       .  A
O1086     Al1090   1.783       .  S
O1087      C1088   1.258       .  A
C1088      C1706   1.427       .  S
C1089      C1707   1.424       .  S
C1092      C1709   1.444       .  S
C1093      O1094   1.259       .  A
C1093      C1711   1.436       .  S
O1095      C1110   1.265       .  A
C1096      O1106   1.265       .  A
C1096      O1097   1.259       .  A
C1096      C1758   1.444       .  S
O1097     Al1099   1.898   1_655  S
O1098      C1100   1.264       .  A
Al1099     O1107   1.952       .  S
Al1099     O1108   1.780       .  S
C1100      C1780   1.438       .  S
O1101      C1111   1.266       .  A
O1101     Al1103   1.930       .  S
O1102      C1115   1.260       .  A
O1102     Al1112   1.922       .  S
Al1103     O1116   1.895       .  S
Al1103     O1113   1.891   1_455  S
Al1103     O1108   1.781       .  S
O1104      C1111   1.258   1_655  A
O1104     Al1112   1.879   1_655  S
O1105      C1114   1.258       .  A
O1105     Al1112   1.887       .  S
O1106     Al1112   1.938   1_655  S
O1107      C1114   1.269       .  A
O1108     Al1112   1.783       .  S
O1109      C1110   1.258       .  A
C1110      C1699   1.427       .  S
C1111      C1702   1.425   1_455  S
C1114      C1710   1.444       .  S
C1115      O1116   1.259       .  A
C1115      C1703   1.435       .  S
O1117      C1132   1.259       .  A
O1117     Al1125   1.895       .  S
C1118      O1128   1.259       .  A
C1118      O1119   1.265       .  A
C1118      C1697   1.445       .  S
O1119     Al1121   1.939   1_455  S
O1120      C1122   1.258       .  A
O1120     Al1121   1.879       .  S
Al1121     O1129   1.887       .  S
Al1121     O1131   1.923       .  S
Al1121     O1130   1.783       .  S
C1122      O1135   1.266       .  A
C1122      C1701   1.425       .  S
O1123      C1133   1.257       .  A
O1123     Al1125   1.891   1_455  S
O1124      C1137   1.258       .  A
O1124     Al1134   1.878       .  S
Al1125     O1138   1.930       .  S
Al1125     O1135   1.930       .  S
Al1125     O1130   1.781       .  S
O1126      C1133   1.264       .  A
O1126     Al1134   1.933   1_455  S
O1127      C1136   1.269       .  A
O1127     Al1134   1.953       .  S
O1128     Al1134   1.898   1_455  S
O1129      C1136   1.258       .  A
O1130     Al1134   1.780       .  S
O1131      C1132   1.261       .  A
C1132      C1755   1.435       .  S
C1133      C1695   1.438       .  S
C1136      C1693   1.445       .  S
C1137      O1138   1.265       .  A
C1137      C1771   1.427       .  S
O1139      C1154   1.259       .  A
O1139     Al1147   1.895       .  S
C1140      O1150   1.259       .  A
C1140      O1141   1.265       .  A
C1140      C1691   1.445       .  S
O1141     Al1143   1.939       .  S
O1142      C1144   1.258       .  A
O1142     Al1143   1.879       .  S
Al1143     O1151   1.888       .  S
Al1143     O1153   1.922       .  S
Al1143     O1152   1.783       .  S
C1144      O1157   1.266       .  A
C1144      C1688   1.424       .  S
O1145      C1155   1.257       .  A
O1145     Al1147   1.891       .  S
O1146      C1159   1.258       .  A
O1146     Al1156   1.878       .  S
Al1147     O1160   1.930       .  S
Al1147     O1157   1.930       .  S
Al1147     O1152   1.781       .  S
O1148      C1155   1.263       .  A
O1148     Al1156   1.932       .  S
O1149      C1158   1.269       .  A
O1149     Al1156   1.952       .  S
O1150     Al1156   1.898       .  S
O1151      C1158   1.258       .  A
O1152     Al1156   1.780       .  S
O1153      C1154   1.260       .  A
C1154      C1717   1.435       .  S
C1155      C1689   1.438       .  S
C1158      C1694   1.445       .  S
C1159      O1160   1.265       .  A
C1159      C1781   1.427       .  S
O1161      C1176   1.265       .  A
C1162      O1172   1.265       .  A
C1162      O1163   1.259       .  A
C1162      C1730   1.444       .  S
O1163     Al1165   1.898       .  S
O1164      C1166   1.264       .  A
Al1165     O1173   1.952       .  S
Al1165     O1174   1.780       .  S
C1166      C1749   1.438       .  S
O1167      C1177   1.266       .  A
O1167     Al1169   1.930       .  S
O1168      C1181   1.260       .  A
O1168     Al1178   1.922       .  S
Al1169     O1182   1.895       .  S
Al1169     O1179   1.890       .  S
Al1169     O1174   1.781       .  S
O1170      C1177   1.258       .  A
O1170     Al1178   1.878       .  S
O1171      C1180   1.258       .  A
O1171     Al1178   1.887       .  S
O1172     Al1178   1.938       .  S
O1173      C1180   1.269       .  A
O1174     Al1178   1.783       .  S
O1175      C1176   1.258       .  A
C1176      C1680   1.427       .  S
C1177      C1681   1.424       .  S
C1180      C1683   1.444       .  S
C1181      O1182   1.259       .  A
C1181      C1686   1.435       .  S
O1183      C1198   1.265       .  A
C1184      O1194   1.265       .  A
C1184      O1185   1.259       .  A
C1184      C1720   1.445       .  S
O1185     Al1187   1.899       .  S
O1186      C1188   1.264       .  A
Al1187     O1195   1.951       .  S
Al1187     O1196   1.781       .  S
C1188      C1792   1.438       .  S
O1189      C1199   1.266       .  A
O1189     Al1191   1.930       .  S
O1190      C1203   1.260       .  A
O1190     Al1200   1.922       .  S
Al1191     O1204   1.895       .  S
Al1191     O1201   1.890       .  S
Al1191     O1196   1.781       .  S
O1192      C1199   1.258       .  A
O1192     Al1200   1.879       .  S
O1193      C1202   1.258       .  A
O1193     Al1200   1.887       .  S
O1194     Al1200   1.939       .  S
O1195      C1202   1.269       .  A
O1196     Al1200   1.783       .  S
O1197      C1198   1.258       .  A
C1198      C1676   1.427       .  S
C1199      C1687   1.424       .  S
C1202      C1684   1.444       .  S
C1203      O1204   1.259       .  A
C1203      C1677   1.435       .  S
O1205      C1220   1.259       .  A
O1205     Al1213   1.895       .  S
C1206      O1216   1.259       .  A
C1206      O1207   1.265       .  A
C1206      C1674   1.444       .  S
O1207     Al1209   1.939       .  S
O1208      C1210   1.258       .  A
O1208     Al1209   1.878       .  S
Al1209     O1217   1.887       .  S
Al1209     O1219   1.922       .  S
Al1209     O1218   1.783       .  S
C1210      O1223   1.266       .  A
C1210      C1682   1.424       .  S
O1211      C1221   1.257       .  A
O1211     Al1213   1.891       .  S
O1212      C1225   1.258       .  A
O1212     Al1222   1.877       .  S
Al1213     O1226   1.930       .  S
Al1213     O1223   1.930       .  S
Al1213     O1218   1.781       .  S
O1214      C1221   1.264       .  A
O1214     Al1222   1.932       .  S
O1215      C1224   1.269       .  A
O1215     Al1222   1.951       .  S
O1216     Al1222   1.898       .  S
O1217      C1224   1.258       .  A
O1218     Al1222   1.780       .  S
O1219      C1220   1.260       .  A
C1220      C1728   1.435       .  S
C1221      C1672   1.438       .  S
C1224      C1669   1.444       .  S
C1225      O1226   1.265       .  A
C1225      C1740   1.427       .  S
O1227      C1242   1.259       .  A
O1227     Al1235   1.895       .  S
C1228      O1238   1.259       .  A
C1228      O1229   1.265       .  A
C1228      C1667   1.445       .  S
O1229     Al1231   1.939       .  S
O1230      C1232   1.258       .  A
O1230     Al1231   1.878       .  S
Al1231     O1239   1.887       .  S
Al1231     O1241   1.923       .  S
Al1231     O1240   1.783       .  S
C1232      O1245   1.266       .  A
C1232      C1708   1.424       .  S
O1233      C1243   1.257       .  A
O1233     Al1235   1.890       .  S
O1234      C1247   1.258       .  A
O1234     Al1244   1.878       .  S
Al1235     O1248   1.929       .  S
Al1235     O1245   1.929       .  S
Al1235     O1240   1.781       .  S
O1236      C1243   1.263       .  A
O1236     Al1244   1.931       .  S
O1237      C1246   1.269       .  A
O1237     Al1244   1.951       .  S
O1238     Al1244   1.898       .  S
O1239      C1246   1.258       .  A
O1240     Al1244   1.780       .  S
O1241      C1242   1.261       .  A
C1242      C1767   1.436       .  S
C1243      C1665   1.438   1_556  S
C1246      C1670   1.444       .  S
C1247      O1248   1.265       .  A
C1247      C1731   1.427       .  S
O1249      C1264   1.265       .  A
O1249     Al1257   1.930       .  S
C1250      O1260   1.265       .  A
C1250      O1251   1.259       .  A
C1250      C1663   1.444       .  S
O1251     Al1253   1.898       .  S
O1252      C1254   1.264       .  A
O1252     Al1253   1.932       .  S
Al1253     O1261   1.952       .  S
Al1253     O1263   1.877       .  S
Al1253     O1262   1.780       .  S
C1254      O1267   1.257       .  A
C1254      C1661   1.438   1_554  S
O1255      C1265   1.266       .  A
O1255     Al1257   1.930       .  S
O1256      C1269   1.260       .  A
O1256     Al1266   1.922       .  S
Al1257     O1270   1.895       .  S
Al1257     O1267   1.890       .  S
Al1257     O1262   1.781       .  S
O1258      C1265   1.258       .  A
O1258     Al1266   1.878       .  S
O1259      C1268   1.258       .  A
O1259     Al1266   1.887       .  S
O1260     Al1266   1.939       .  S
O1261      C1268   1.269       .  A
O1262     Al1266   1.783       .  S
O1263      C1264   1.258       .  A
C1264      C1760   1.427       .  S
C1265      C1658   1.424       .  S
C1268      C1660   1.444       .  S
C1269      O1270   1.259       .  A
C1269      C1734   1.435       .  S
O1271      C1286   1.265       .  A
O1271     Al1279   1.930       .  S
C1272      O1282   1.265       .  A
C1272      O1273   1.259       .  A
C1272      C1656   1.445       .  S
O1273     Al1275   1.899       .  S
O1274      C1276   1.264       .  A
O1274     Al1275   1.932       .  S
Al1275     O1283   1.952       .  S
Al1275     O1285   1.878       .  S
Al1275     O1284   1.781       .  S
C1276      O1289   1.257       .  A
C1276      C1654   1.438       .  S
O1277      C1287   1.266       .  A
O1277     Al1279   1.930       .  S
O1278      C1291   1.260       .  A
O1278     Al1288   1.922       .  S
Al1279     O1292   1.895       .  S
Al1279     O1289   1.891       .  S
Al1279     O1284   1.781       .  S
O1280      C1287   1.258       .  A
O1280     Al1288   1.879       .  S
O1281      C1290   1.258       .  A
O1281     Al1288   1.887       .  S
O1282     Al1288   1.939       .  S
O1283      C1290   1.269       .  A
O1284     Al1288   1.783       .  S
O1285      C1286   1.258       .  A
C1286      C1751   1.427       .  S
C1287      C1652   1.425       .  S
C1290      C1659   1.444       .  S
C1291      O1292   1.259       .  A
C1291      C1776   1.435       .  S
O1293      C1308   1.259       .  A
O1293     Al1301   1.895       .  S
C1294      O1304   1.259       .  A
C1294      O1295   1.265       .  A
C1294      C1789   1.444       .  S
O1295     Al1297   1.939       .  S
O1296      C1298   1.258       .  A
O1296     Al1297   1.879       .  S
Al1297     O1305   1.888       .  S
Al1297     O1307   1.922       .  S
Al1297     O1306   1.783       .  S
C1298      O1311   1.266       .  A
C1298      C1646   1.425       .  S
O1299     Al1301   1.891       .  S
O1300      C1313   1.258       .  A
Al1301     O1311   1.930       .  S
Al1301     O1306   1.781       .  S
O1302      C1309   1.264       .  A
O1303      C1312   1.269       .  A
O1303     Al1310   1.952       .  S
O1304     Al1310   1.898       .  S
O1305      C1312   1.258       .  A
O1306     Al1310   1.780       .  S
O1307      C1308   1.260       .  A
C1308      C1649   1.435       .  S
C1309      C1716   1.438       .  S
C1312      C1648   1.445       .  S
C1313      O1314   1.265       .  A
C1313      C1643   1.427       .  S
O1315      C1330   1.259       .  A
O1315     Al1323   1.895       .  S
C1316      O1326   1.259       .  A
C1316      O1317   1.265       .  A
C1316      C1778   1.445       .  S
O1317     Al1319   1.939       .  S
O1318      C1320   1.258       .  A
O1318     Al1319   1.879       .  S
Al1319     O1327   1.888       .  S
Al1319     O1329   1.922       .  S
Al1319     O1328   1.783       .  S
C1320      O1333   1.266       .  A
C1320      C1651   1.425       .  S
O1321     Al1323   1.891       .  S
O1322      C1335   1.258       .  A
Al1323     O1333   1.930       .  S
Al1323     O1328   1.781       .  S
O1324      C1331   1.264       .  A
O1325      C1334   1.269       .  A
O1325     Al1332   1.952       .  S
O1326     Al1332   1.898       .  S
O1327      C1334   1.258       .  A
O1328     Al1332   1.781       .  S
O1329      C1330   1.260       .  A
C1330      C1642   1.435       .  S
C1331      C1754   1.438       .  S
C1334      C1647   1.445       .  S
C1335      O1336   1.265       .  A
C1335      C1640   1.427       .  S
O1337      C1352   1.265       .  A
O1337     Al1345   1.930       .  S
C1338      O1348   1.265       .  A
C1338      O1339   1.259       .  A
C1338      C1637   1.444       .  S
O1339     Al1341   1.899   1_655  S
O1340      C1342   1.263       .  A
O1340     Al1341   1.931   1_655  S
Al1341     O1349   1.951       .  S
Al1341     O1351   1.878       .  S
Al1341     O1350   1.780       .  S
C1342      O1355   1.257       .  A
C1342      C1636   1.437       .  S
O1343      C1353   1.266       .  A
O1343     Al1345   1.929       .  S
O1344      C1357   1.260       .  A
O1344     Al1354   1.923       .  S
Al1345     O1358   1.895       .  S
Al1345     O1355   1.890   1_455  S
Al1345     O1350   1.781       .  S
O1346      C1353   1.258   1_655  A
O1346     Al1354   1.878   1_655  S
O1347      C1356   1.258       .  A
O1347     Al1354   1.887       .  S
O1348     Al1354   1.939   1_655  S
O1349      C1356   1.269       .  A
O1350     Al1354   1.783       .  S
O1351      C1352   1.258       .  A
C1352      C1722   1.427       .  S
C1353      C1632   1.424   1_455  S
C1356      C1633   1.444       .  S
C1357      O1358   1.259       .  A
C1357      C1746   1.436       .  S
O1359      C1374   1.265       .  A
O1359     Al1367   1.930       .  S
C1360      O1370   1.265       .  A
C1360      O1361   1.259       .  A
C1360      C1630   1.444       .  S
O1361     Al1363   1.898       .  S
O1362      C1364   1.264       .  A
O1362     Al1363   1.932       .  S
Al1363     O1371   1.952       .  S
Al1363     O1373   1.878       .  S
Al1363     O1372   1.780       .  S
C1364      O1377   1.257       .  A
C1364      C1627   1.438       .  S
O1365      C1375   1.266       .  A
O1365     Al1367   1.930       .  S
O1366      C1379   1.260       .  A
O1366     Al1376   1.922       .  S
Al1367     O1380   1.895       .  S
Al1367     O1377   1.891       .  S
Al1367     O1372   1.781       .  S
O1368      C1375   1.258       .  A
O1368     Al1376   1.879       .  S
O1369      C1378   1.258       .  A
O1369     Al1376   1.887       .  S
O1370     Al1376   1.938       .  S
O1371      C1378   1.269       .  A
O1372     Al1376   1.783       .  S
O1373      C1374   1.258       .  A
C1374      C1714   1.427       .  S
C1375      C1645   1.425       .  S
C1378      C1634   1.444       .  S
C1379      O1380   1.259       .  A
C1379      C1788   1.435       .  S
O1381      C1396   1.259       .  A
O1381     Al1389   1.895       .  S
C1382      O1392   1.259       .  A
C1382      O1383   1.265       .  A
C1382      C1748   1.444       .  S
O1383     Al1385   1.939   1_455  S
O1384      C1386   1.258       .  A
O1384     Al1385   1.878       .  S
Al1385     O1393   1.887       .  S
Al1385     O1395   1.922       .  S
Al1385     O1394   1.783       .  S
C1386      O1399   1.266       .  A
C1386      C1631   1.424       .  S
O1387     Al1389   1.890   1_455  S
O1388      C1401   1.258       .  A
Al1389     O1399   1.930       .  S
Al1389     O1394   1.781       .  S
O1390      C1397   1.263       .  A
O1391      C1400   1.269       .  A
O1391     Al1398   1.951       .  S
O1392     Al1398   1.898   1_455  S
O1393      C1400   1.258       .  A
O1394     Al1398   1.780       .  S
O1395      C1396   1.260       .  A
C1396      C1626   1.436       .  S
C1397      C1726   1.437       .  S
C1400      C1623   1.443       .  S
C1401      O1402   1.265       .  A
C1401      C1622   1.427       .  S
O1403      C1418   1.259       .  A
O1403     Al1411   1.895       .  S
C1404      O1414   1.259       .  A
C1404      O1405   1.265       .  A
C1404      C1736   1.444       .  S
O1405     Al1407   1.939       .  S
O1406      C1408   1.258       .  A
O1406     Al1407   1.878       .  S
Al1407     O1415   1.886       .  S
Al1407     O1417   1.923       .  S
Al1407     O1416   1.783       .  S
C1408      O1421   1.266       .  A
C1408      C1657   1.424       .  S
O1409     Al1411   1.890       .  S
O1410      C1423   1.258       .  A
Al1411     O1421   1.930       .  S
Al1411     O1416   1.781       .  S
O1412      C1419   1.264       .  A
O1413      C1422   1.269       .  A
O1413     Al1420   1.951       .  S
O1414     Al1420   1.898       .  S
O1415      C1422   1.258       .  A
O1416     Al1420   1.780       .  S
O1417      C1418   1.261       .  A
C1418      C1619   1.435       .  S
C1419      C1766   1.438   1_556  S
C1422      C1624   1.443       .  S
C1423      O1424   1.265       .  A
C1423      C1618   1.427       .  S
O1425      C1440   1.259       .  A
O1425     Al1433   1.895       .  S
C1426      O1436   1.259       .  A
C1426      O1427   1.265       .  A
C1426      C1668   1.445       .  S
O1427     Al1429   1.939   1_455  S
O1428      C1430   1.258       .  A
O1428     Al1429   1.879       .  S
Al1429     O1437   1.888       .  S
Al1429     O1439   1.923       .  S
Al1429     O1438   1.783       .  S
C1430      O1443   1.266       .  A
C1430      C1613   1.425       .  S
O1431      C1441   1.257       .  A
O1431     Al1433   1.891   1_455  S
O1432      C1445   1.258       .  A
O1432     Al1442   1.878       .  S
Al1433     O1446   1.930       .  S
Al1433     O1443   1.930       .  S
Al1433     O1438   1.781       .  S
O1434      C1441   1.264       .  A
O1434     Al1442   1.932   1_455  S
O1435      C1444   1.269       .  A
O1435     Al1442   1.952       .  S
O1436     Al1442   1.898   1_455  S
O1437      C1444   1.258       .  A
O1438     Al1442   1.780       .  S
O1439      C1440   1.260       .  A
C1440      C1662   1.435       .  S
C1441      C1712   1.438   1_556  S
C1444      C1616   1.444       .  S
C1445      O1446   1.265       .  A
C1445      C1617   1.427       .  S
O1447      C1462   1.259       .  A
O1447     Al1455   1.895       .  S
C1448      O1458   1.259       .  A
C1448      O1449   1.265       .  A
C1448      C1673   1.444       .  S
O1449     Al1451   1.939       .  S
O1450      C1452   1.258       .  A
O1450     Al1451   1.879       .  S
Al1451     O1459   1.887       .  S
Al1451     O1461   1.922       .  S
Al1451     O1460   1.783       .  S
C1452      O1465   1.266       .  A
C1452      C1611   1.425       .  S
O1453      C1463   1.257       .  A
O1453     Al1455   1.890       .  S
O1454      C1467   1.258       .  A
O1454     Al1464   1.878       .  S
Al1455     O1468   1.930       .  S
Al1455     O1465   1.930       .  S
Al1455     O1460   1.781       .  S
O1456      C1463   1.264       .  A
O1456     Al1464   1.932       .  S
O1457      C1466   1.269       .  A
O1457     Al1464   1.952       .  S
O1458     Al1464   1.898       .  S
O1459      C1466   1.258       .  A
O1460     Al1464   1.780       .  S
O1461      C1462   1.260       .  A
C1462      C1635   1.435       .  S
C1463      C1685   1.438       .  S
C1466      C1615   1.444       .  S
C1467      O1468   1.265       .  A
C1467      C1621   1.427       .  S
O1469      C1484   1.265       .  A
O1469     Al1477   1.930       .  S
C1470      O1480   1.265       .  A
C1470      O1471   1.259       .  A
C1470      C1664   1.444       .  S
O1471     Al1473   1.898   1_655  S
O1472      C1474   1.264       .  A
O1472     Al1473   1.932   1_655  S
Al1473     O1481   1.952       .  S
Al1473     O1483   1.878       .  S
Al1473     O1482   1.780       .  S
C1474      O1487   1.257       .  A
C1474      C1620   1.438   1_554  S
O1475      C1485   1.266       .  A
O1475     Al1477   1.930       .  S
O1476      C1489   1.260       .  A
O1476     Al1486   1.922       .  S
Al1477     O1490   1.895       .  S
Al1477     O1487   1.891   1_455  S
Al1477     O1482   1.781       .  S
O1478      C1485   1.258   1_655  A
O1478     Al1486   1.879   1_655  S
O1479      C1488   1.258       .  A
O1479     Al1486   1.887       .  S
O1480     Al1486   1.938   1_655  S
O1481      C1488   1.269       .  A
O1482     Al1486   1.783       .  S
O1483      C1484   1.258       .  A
C1484      C1705   1.427       .  S
C1485      C1614   1.425   1_455  S
C1488      C1609   1.444       .  S
C1489      O1490   1.259       .  A
C1489      C1666   1.435       .  S
O1491      C1506   1.265       .  A
O1491     Al1499   1.930       .  S
C1492      O1502   1.265       .  A
C1492      O1493   1.259       .  A
C1492      C1655   1.445       .  S
O1493     Al1495   1.898       .  S
O1494      C1496   1.264       .  A
O1494     Al1495   1.932       .  S
Al1495     O1503   1.952       .  S
Al1495     O1505   1.878       .  S
Al1495     O1504   1.780       .  S
C1496      O1509   1.257       .  A
C1496      C1641   1.438       .  S
O1497      C1507   1.266       .  A
O1497     Al1499   1.930       .  S
O1498      C1511   1.261       .  A
O1498     Al1508   1.923       .  S
Al1499     O1512   1.895       .  S
Al1499     O1509   1.890       .  S
Al1499     O1504   1.781       .  S
O1500      C1507   1.258       .  A
O1500     Al1508   1.878       .  S
O1501      C1510   1.258       .  A
O1501     Al1508   1.888       .  S
O1502     Al1508   1.939       .  S
O1503      C1510   1.269       .  A
O1504     Al1508   1.783       .  S
O1505      C1506   1.258       .  A
C1506      C1700   1.427       .  S
C1507      C1608   1.424       .  S
C1510      C1610   1.444       .  S
C1511      O1512   1.259       .  A
C1511      C1696   1.436       .  S
O1513      C1528   1.259       .  A
O1513     Al1521   1.895       .  S
C1514      O1524   1.259       .  A
C1514      O1515   1.265       .  A
C1514      C1698   1.445       .  S
O1515     Al1517   1.939       .  S
O1516      C1518   1.258       .  A
O1516     Al1517   1.878       .  S
Al1517     O1525   1.888       .  S
Al1517     O1527   1.923       .  S
Al1517     O1526   1.783       .  S
C1518      O1531   1.266       .  A
C1518      C1607   1.424       .  S
O1519      C1529   1.257       .  A
O1519     Al1521   1.890       .  S
O1520      C1533   1.258       .  A
O1520     Al1530   1.878       .  S
Al1521     O1534   1.930       .  S
Al1521     O1531   1.930       .  S
Al1521     O1526   1.781       .  S
O1522      C1529   1.263       .  A
O1522     Al1530   1.931       .  S
O1523      C1532   1.269       .  A
O1523     Al1530   1.951       .  S
O1524     Al1530   1.898       .  S
O1525      C1532   1.258       .  A
O1526     Al1530   1.780       .  S
O1527      C1528   1.260       .  A
C1528      C1653   1.436       .  S
C1529      C1704   1.438       .  S
C1532      C1606   1.444       .  S
C1533      O1534   1.265       .  A
C1533      C1639   1.427       .  S
O1535      C1550   1.259       .  A
O1535     Al1543   1.895       .  S
C1536      O1546   1.259       .  A
C1536      O1537   1.265       .  A
C1536      C1692   1.445       .  S
O1537     Al1539   1.939       .  S
O1538      C1540   1.258       .  A
O1538     Al1539   1.878       .  S
Al1539     O1547   1.887       .  S
Al1539     O1549   1.923       .  S
Al1539     O1548   1.783       .  S
C1540      O1553   1.266       .  A
C1540      C1603   1.424       .  S
O1541      C1551   1.257       .  A
O1541     Al1543   1.891       .  S
O1542      C1555   1.258       .  A
O1542     Al1552   1.878       .  S
Al1543     O1556   1.929       .  S
Al1543     O1553   1.930       .  S
Al1543     O1548   1.781       .  S
O1544      C1551   1.264       .  A
O1544     Al1552   1.932       .  S
O1545      C1554   1.269       .  A
O1545     Al1552   1.952       .  S
O1546     Al1552   1.899       .  S
O1547      C1554   1.258       .  A
O1548     Al1552   1.780       .  S
O1549      C1550   1.261       .  A
C1550      C1628   1.435       .  S
C1551      C1678   1.438       .  S
C1554      C1605   1.444       .  S
C1555      O1556   1.265       .  A
C1555      C1644   1.427       .  S
O1557      C1572   1.265       .  A
O1557     Al1565   1.930       .  S
C1558      O1568   1.265       .  A
C1558      O1559   1.259       .  A
C1558      C1638   1.444       .  S
O1559     Al1561   1.899       .  S
O1560      C1562   1.264       .  A
O1560     Al1561   1.932       .  S
Al1561     O1569   1.951       .  S
Al1561     O1571   1.878       .  S
Al1561     O1570   1.781       .  S
C1562      O1575   1.257       .  A
C1562      C1625   1.438       .  S
O1563      C1573   1.266       .  A
O1563     Al1565   1.930       .  S
O1564      C1577   1.260       .  A
O1564     Al1574   1.922       .  S
Al1565     O1578   1.895       .  S
Al1565     O1575   1.891       .  S
Al1565     O1570   1.781       .  S
O1566      C1573   1.258       .  A
O1566     Al1574   1.879       .  S
O1567      C1576   1.258       .  A
O1567     Al1574   1.887       .  S
O1568     Al1574   1.939       .  S
O1569      C1576   1.269       .  A
O1570     Al1574   1.783       .  S
O1571      C1572   1.258       .  A
C1572      C1679   1.427       .  S
C1573      C1612   1.425       .  S
C1576      C1602   1.444       .  S
C1577      O1578   1.259       .  A
C1577      C1671   1.435       .  S
O1579      C1594   1.265       .  A
O1579     Al1587   1.930       .  S
C1580      O1590   1.265       .  A
C1580      O1581   1.259       .  A
C1580      C1629   1.444       .  S
O1581     Al1583   1.898       .  S
O1582      C1584   1.264       .  A
O1582     Al1583   1.932       .  S
Al1583     O1591   1.952       .  S
Al1583     O1593   1.877       .  S
Al1583     O1592   1.780       .  S
C1584      O1597   1.257       .  A
C1584      C1650   1.438       .  S
O1585      C1595   1.266       .  A
O1585     Al1587   1.930       .  S
O1586      C1599   1.260       .  A
O1586     Al1596   1.922       .  S
Al1587     O1600   1.895       .  S
Al1587     O1597   1.890       .  S
Al1587     O1592   1.781       .  S
O1588      C1595   1.258       .  A
O1588     Al1596   1.878       .  S
O1589      C1598   1.258       .  A
O1589     Al1596   1.887       .  S
O1590     Al1596   1.938       .  S
O1591      C1598   1.269       .  A
O1592     Al1596   1.783       .  S
O1593      C1594   1.258       .  A
C1594      C1675   1.427       .  S
C1595      C1604   1.424       .  S
C1598      C1601   1.444       .  S
C1599      O1600   1.259       .  A
C1599      C1690   1.435       .  S
C1601      C1602   1.211       .  T
C1603      C1604   1.200       .  T
C1605      C1606   1.211       .  T
C1607      C1608   1.200       .  T
C1609      C1610   1.211       .  T
C1611      C1612   1.200       .  T
C1613      C1614   1.200   1_556  T
C1615      C1616   1.211       .  T
C1617      C1618   1.201       .  T
C1619      C1620   1.207       .  T
C1621      C1622   1.201       .  T
C1623      C1624   1.211       .  T
C1625      C1626   1.207       .  T
C1627      C1628   1.207       .  T
C1629      C1630   1.211       .  T
C1631      C1632   1.200       .  T
C1633      C1634   1.211       .  T
C1635      C1636   1.207       .  T
C1637      C1638   1.211       .  T
C1639      C1640   1.201       .  T
C1641      C1642   1.207       .  T
C1643      C1644   1.201       .  T
C1645      C1646   1.200       .  T
C1647      C1648   1.212       .  T
C1649      C1650   1.207       .  T
C1651      C1652   1.200       .  T
C1653      C1654   1.207       .  T
C1655      C1656   1.211       .  T
C1657      C1658   1.200   1_556  T
C1659      C1660   1.211       .  T
C1661      C1662   1.207       .  T
C1663      C1664   1.211       .  T
C1665      C1666   1.207       .  T
C1667      C1668   1.211       .  T
C1669      C1670   1.211       .  T
C1671      C1672   1.207       .  T
C1673      C1674   1.211       .  T
C1675      C1676   1.201       .  T
C1677      C1678   1.207       .  T
C1679      C1680   1.201       .  T
C1681      C1682   1.200       .  T
C1683      C1684   1.211       .  T
C1685      C1686   1.207       .  T
C1687      C1688   1.200       .  T
C1689      C1690   1.207       .  T
C1691      C1692   1.211       .  T
C1693      C1694   1.212       .  T
C1695      C1696   1.207       .  T
C1697      C1698   1.211       .  T
C1699      C1700   1.201       .  T
C1701      C1702   1.200       .  T
C1703      C1704   1.207       .  T
C1705      C1706   1.201       .  T
C1707      C1708   1.200   1_554  T
C1709      C1710   1.211       .  T
C1711      C1712   1.207       .  T
C1713      C1714   1.201       .  T
C1715      C1716   1.207       .  T
C1717      C1718   1.207       .  T
C1719      C1720   1.211       .  T
C1721      C1722   1.201       .  T
C1723      C1724   1.211       .  T
C1725      C1726   1.207       .  T
C1727      C1728   1.207       .  T
C1729      C1730   1.211       .  T
C1731      C1732   1.201       .  T
C1733      C1734   1.207       .  T
C1735      C1736   1.211       .  T
C1737      C1738   1.207       .  T
C1739      C1740   1.201       .  T
C1743      C1744   1.211       .  T
C1745      C1746   1.207       .  T
C1747      C1748   1.211       .  T
C1749      C1750   1.207       .  T
C1751      C1752   1.201       .  T
C1753      C1754   1.207       .  T
C1755      C1756   1.207       .  T
C1757      C1758   1.211       .  T
C1759      C1760   1.201       .  T
C1763      C1764   1.211       .  T
C1765      C1766   1.207       .  T
C1767      C1768   1.207       .  T
C1769      C1770   1.211       .  T
C1771      C1772   1.201       .  T
C1775      C1776   1.207       .  T
C1777      C1778   1.211       .  T
C1779      C1780   1.207       .  T
C1781      C1782   1.201       .  T
C1785      C1786   1.211       .  T
C1787      C1788   1.207       .  T
C1789      C1790   1.211       .  T
C1791      C1792   1.207       .  T
