geometry optimzed in LAMMPS
_audit_creation_date              2020-12-01 
_audit_creation_method            'lammps2cif' 
_symmetry_space_group_name_H-M    'P1' 
_symmetry_Int_Tables_number       1 
_symmetry_cell_setting            triclinic 
loop_ 
_symmetry_equiv_pos_as_xyz 
  x,y,z 
_cell_length_a                    34.11913977 
_cell_length_b                    44.92121033280907 
_cell_length_c                    41.383979153332625 
_cell_angle_alpha                 89.49494885296906 
_cell_angle_beta                  90.71497054642123 
_cell_angle_gamma                 89.5702544967753 
loop_ 
_atom_site_label 
_atom_site_type_symbol 
_atom_site_fract_x 
_atom_site_fract_y 
_atom_site_fract_z 
_atom_site_charge 
Fe1        Fe  0.66067281  0.22133972  0.63486455     1.65800
Fe2        Fe  0.64521570  0.15515978  0.59821843     1.73200
Fe3        Fe  0.73667963  0.17380802  0.62223065     1.54400
O4          O  0.75805885  0.21727933  0.61570273    -0.81900
O5          O  0.65945291  0.12199284  0.63080844    -0.80200
O6          O  0.70531193  0.24607554  0.61737741    -0.84400
O7          O  0.69257346  0.21626553  0.67906667    -0.79200
O8          O  0.73969369  0.16676290  0.57327465    -0.81000
O9          O  0.59597005  0.16627536  0.62356306    -0.83700
C10         C  0.72217810  0.20029491  0.68855812     0.97000
C11         C  0.74172991  0.24280815  0.61420349     1.04500
O12         O  0.68077274  0.18350806  0.61922405    -1.12700
O13         O  0.63187188  0.18629642  0.56361540    -0.75200
O14         O  0.63179528  0.22977437  0.58964135    -0.78600
O15         O  0.73755007  0.18050088  0.67097442    -0.79300
C16         C  0.62805875  0.21443648  0.56369760     0.95900
O17         O  0.61116813  0.20327946  0.65596371    -0.77300
O18         O  0.68693172  0.13863910  0.56830243    -0.82500
C19         C  0.69437095  0.11210368  0.63339549     0.98500
C20         C  0.72022448  0.14682985  0.55890980     1.04500
O21         O  0.72428091  0.12864528  0.62960447    -0.78100
C22         C  0.58682248  0.18451946  0.64529614     1.02800
Fe23       Fe  0.84642438  0.01993980  0.37000751     1.65800
Fe24       Fe  0.85541849  0.08274740  0.41409274     1.73200
Fe25       Fe  0.76676158  0.06363409  0.38426699     1.54400
O26         O  0.76973872  0.06285890  0.33524023    -0.81900
O27         O  0.81069449  0.09300396  0.44446185    -0.80200
O28         O  0.81628781  0.02851428  0.32530239    -0.84400
O29         O  0.80250510  0.99232130  0.38381703    -0.79200
O30         O  0.77590687  0.10981811  0.38347607    -0.81000
O31         O  0.87063688  0.04900834  0.44517545    -0.83700
C32         C  0.76571641  0.99429626  0.38269580     0.97000
C33         C  0.78682607  0.04494822  0.31644233     1.04500
O34         O  0.82310993  0.05545657  0.38867108    -1.12700
O35         O  0.90625829  0.07683220  0.38833731    -0.75200
O36         O  0.89581871  0.04125725  0.35270154    -0.78600
O37         O  0.74810467  0.01929072  0.38320169    -0.79300
C38         C  0.91757300  0.06100668  0.36504736     0.95900
O39         O  0.87449717  0.00830518  0.41482748    -0.77300
O40         O  0.84001795  0.11883338  0.38564275    -0.82500
C41         C  0.77754761  0.08244320  0.45138455     0.98500
C42         C  0.80478544  0.12773961  0.38225499     1.04500
O43         O  0.75988502  0.06418533  0.43337371    -0.78100
C44         C  0.87742227  0.02136177  0.44227774     1.02800
Fe45       Fe  0.34685687  0.22684307  0.64125743     1.65800
Fe46       Fe  0.35736229  0.16385635  0.59676059     1.73200
Fe47       Fe  0.26788734  0.18465125  0.62299171     1.54400
O48         O  0.27021544  0.18514500  0.67206979    -0.81900
O49         O  0.31385139  0.15545261  0.56445147    -0.80200
O50         O  0.32040045  0.21517242  0.68581574    -0.84400
O51         O  0.30105159  0.25535218  0.63251617    -0.79200
O52         O  0.27606617  0.13857551  0.62354015    -0.81000
O53         O  0.37451181  0.19793570  0.56666910    -0.83700
C54         C  0.26457160  0.25339047  0.62858599     0.97000
C55         C  0.28981643  0.19975093  0.69284396     1.04500
O56         O  0.32435211  0.19168934  0.62126116    -1.12700
O57         O  0.40736410  0.16749694  0.62462846    -0.75200
O58         O  0.39922695  0.20678133  0.65555196    -0.78600
O59         O  0.24819419  0.22869981  0.62326897    -0.79300
C60         C  0.41999042  0.18533324  0.64564422     0.95900
O61         O  0.36914091  0.23988174  0.59551459    -0.77300
O62         O  0.33971334  0.12718088  0.62331045    -0.82500
C63         C  0.28105483  0.16654187  0.55634335     0.98500
C64         C  0.30395373  0.11956686  0.62520693     1.04500
O65         O  0.26301815  0.18488208  0.57379075    -0.78100
C66         C  0.37485071  0.22614052  0.56876342     1.02800
Fe67       Fe  0.16056684  0.02728057  0.37660223     1.65800
Fe68       Fe  0.14250904  0.09458918  0.41146763     1.73200
Fe69       Fe  0.23309901  0.07783984  0.38530094     1.54400
O70         O  0.25693743  0.03472590  0.38827413    -0.81900
O71         O  0.15536509  0.13025778  0.38150629    -0.80200
O72         O  0.20757186  0.00410511  0.39648556    -0.84400
O73         O  0.19252084  0.03161877  0.33226326    -0.79200
O74         O  0.24030150  0.08289806  0.43395738    -0.81000
O75         O  0.09408720  0.08394046  0.38405051    -0.83700
C76         C  0.21827678  0.04998870  0.32125022     0.97000
C77         C  0.24380326  0.00882139  0.39351617     1.04500
O78         O  0.17827977  0.06657755  0.39040340    -1.12700
O79         O  0.12830356  0.06304123  0.44507164    -0.75200
O80         O  0.13199433  0.01885227  0.42135837    -0.78600
O81         O  0.22825401  0.07311471  0.33656479    -0.79300
C82         C  0.12587165  0.03498451  0.44628903     0.95900
O83         O  0.10890499  0.04416240  0.35507562    -0.77300
O84         O  0.18565252  0.10862453  0.44192857    -0.82500
C85         C  0.18991425  0.14046480  0.37950264     0.98500
C86         C  0.22065171  0.10186168  0.44951854     1.04500
O87         O  0.21990059  0.12338590  0.38129736    -0.78100
C88         C  0.08462343  0.06413876  0.36383235     1.02800
Fe89       Fe  0.15195199  0.47747796  0.63908590     1.65800
Fe90       Fe  0.14027389  0.41488455  0.59418321     1.73200
Fe91       Fe  0.23109751  0.43485797  0.62014124     1.54400
O92         O  0.24910726  0.47940618  0.61795683    -0.81900
O93         O  0.15884026  0.37834423  0.62093100    -0.80200
O94         O  0.19585826  0.50629043  0.62707973    -0.84400
O95         O  0.18178748  0.46741381  0.68284427    -0.79200
O96         O  0.23447336  0.43251696  0.57065111    -0.81000
O97         O  0.09196295  0.41883419  0.62303926    -0.83700
C98         C  0.21280611  0.45226319  0.69007141     0.97000
C99         C  0.23224857  0.50432325  0.62248731     1.04500
O100        O  0.17438327  0.44235733  0.61849188    -1.12700
O101        O  0.12214901  0.44917291  0.56410829    -0.75200
O102        O  0.12408910  0.48996658  0.59486606    -0.78600
O103        O  0.23211867  0.43740020  0.66955953    -0.79300
C104        C  0.11853302  0.47712852  0.56752216     0.95900
O105        O  0.10323816  0.45580375  0.65661440    -0.77300
O106        O  0.18172545  0.40537770  0.56118422    -0.82500
C107        C  0.19442482  0.37019979  0.62444236     0.98500
C108        C  0.21470252  0.41501146  0.55310572     1.04500
O109        O  0.22275460  0.38862534  0.62317342    -0.78100
C110        C  0.08209611  0.43468962  0.64665627     1.02800
Fe111      Fe  0.34170555  0.28009978  0.36810216     1.65800
Fe112      Fe  0.35669171  0.34356079  0.41067161     1.73200
Fe113      Fe  0.26522613  0.32675833  0.38453069     1.54400
O114        O  0.26690810  0.32413732  0.33510654    -0.81900
O115        O  0.31516625  0.35578291  0.44260929    -0.80200
O116        O  0.31584975  0.29244609  0.32297597    -0.84400
O117        O  0.29432170  0.25413061  0.37749986    -0.79200
O118        O  0.27648882  0.37267613  0.38255769    -0.81000
O119        O  0.37187226  0.30900485  0.44158964    -0.83700
C120        C  0.25797920  0.25747994  0.38084645     0.97000
C121        C  0.28646562  0.30926100  0.31475055     1.04500
O122        O  0.32131691  0.31674614  0.38716732    -1.12700
O123        O  0.40534987  0.33675032  0.38313748    -0.75200
O124        O  0.39483170  0.29719353  0.35334635    -0.78600
O125        O  0.24285418  0.28298812  0.38578935    -0.79300
C126        C  0.41661025  0.31822426  0.36250168     0.95900
O127        O  0.36478378  0.26646042  0.41395046    -0.77300
O128        O  0.34096459  0.38038161  0.38266171    -0.82500
C129        C  0.28141591  0.34794240  0.45088089     0.98500
C130        C  0.30581724  0.39011744  0.38114635     1.04500
O131        O  0.26080809  0.33011865  0.43416229    -0.78100
C132        C  0.37183412  0.28069013  0.44020465     1.02800
Fe133      Fe  0.84615634  0.47024571  0.63706755     1.65800
Fe134      Fe  0.85982212  0.40323808  0.60081669     1.73200
Fe135      Fe  0.76915848  0.42410685  0.62524568     1.54400
O136        O  0.77097934  0.42986175  0.67439957    -0.81900
O137        O  0.81791949  0.39075933  0.56865204    -0.80200
O138        O  0.81464751  0.46674514  0.68045285    -0.84400
O139        O  0.80203328  0.49610010  0.61740796    -0.79200
O140        O  0.77910959  0.37867865  0.62993987    -0.81000
O141        O  0.87676714  0.43476765  0.56760014    -0.83700
C142        C  0.76530614  0.49329758  0.61860395     0.97000
C143        C  0.78678794  0.45041434  0.69096247     1.04500
O144        O  0.82521691  0.43247534  0.62168444    -1.12700
O145        O  0.90833887  0.41165744  0.62914334    -0.75200
O146        O  0.89450520  0.45057903  0.65942865    -0.78600
O147        O  0.74911635  0.46811341  0.62160142    -0.79300
C148        C  0.91803599  0.43050775  0.65029610     0.95900
O149        O  0.87641544  0.47781125  0.59368412    -0.77300
O150        O  0.84282112  0.36820887  0.63056467    -0.82500
C151        C  0.78403757  0.39914713  0.55980678     0.98500
C152        C  0.80722799  0.35986525  0.63076835     1.04500
O153        O  0.76381996  0.41778999  0.57576403    -0.78100
C154        C  0.88198259  0.46273451  0.56807300     1.02800
Fe155      Fe  0.65622947  0.27296115  0.36431152     1.65800
Fe156      Fe  0.64599403  0.33502342  0.41016222     1.73200
Fe157      Fe  0.73561395  0.31470088  0.38369843     1.54400
O158        O  0.75477288  0.27020349  0.38576672    -0.81900
O159        O  0.66161717  0.37146340  0.38213999    -0.80200
O160        O  0.70176215  0.24454496  0.37344725    -0.84400
O161        O  0.68257885  0.28421311  0.32002323    -0.79200
O162        O  0.74180524  0.31797891  0.43297679    -0.81000
O163        O  0.59481653  0.32955141  0.38392295    -0.83700
C164        C  0.71395691  0.29859474  0.31350313     0.97000
C165        C  0.73806160  0.24584564  0.37885067     1.04500
O166        O  0.67916607  0.30753064  0.38542681    -1.12700
O167        O  0.63173629  0.30034077  0.44053230    -0.75200
O168        O  0.63229448  0.25969578  0.40929071    -0.78600
O169        O  0.73419514  0.31206946  0.33468940    -0.79300
C170        C  0.62851171  0.27232700  0.43689627     0.95900
O171        O  0.60522656  0.29382110  0.34895470    -0.77300
O172        O  0.68973836  0.34628141  0.44154205    -0.82500
C173        C  0.69721997  0.37924732  0.37878130     0.98500
C174        C  0.72379014  0.33739315  0.44919543     1.04500
O175        O  0.72545961  0.36041901  0.38049129    -0.78100
C176        C  0.58304625  0.31307621  0.36125503     1.02800
Fe177      Fe  0.84739046  0.24004016  0.86736041     1.65800
Fe178      Fe  0.86442299  0.17742797  0.91046351     1.73200
Fe179      Fe  0.77065681  0.19765753  0.88956325     1.54400
O180        O  0.75476095  0.24153417  0.90014446    -0.81900
O181        O  0.83691035  0.13844368  0.89538450    -0.80200
O182        O  0.79819400  0.26573183  0.87143635    -0.84400
O183        O  0.82402167  0.22540346  0.82297493    -0.79200
O184        O  0.77050753  0.18742221  0.93813002    -0.81000
O185        O  0.90059042  0.17507805  0.87108700    -0.83700
C186        C  0.78890264  0.21590056  0.81790579     0.97000
C187        C  0.76591851  0.26499855  0.88585131     1.04500
O188        O  0.82709188  0.20451993  0.88879417    -1.12700
O189        O  0.89521659  0.21305577  0.93046646    -0.75200
O190        O  0.86609365  0.25480987  0.91285926    -0.78600
O191        O  0.76696541  0.20679667  0.84059249    -0.79300
C192        C  0.88444210  0.23997656  0.93487069     0.95900
O193        O  0.90290502  0.22253067  0.85849845    -0.77300
O194        O  0.83267408  0.17645531  0.95148873    -0.82500
C195        C  0.80257198  0.13245286  0.88505798     0.98500
C196        C  0.79676596  0.17883599  0.95824895     1.04500
O197        O  0.77690561  0.15263261  0.87976962    -0.78100
C198        C  0.91879120  0.19699618  0.85932333     1.02800
Fe199      Fe  0.66203976  0.03622899  0.12986747     1.65800
Fe200      Fe  0.64933279  0.10435510  0.09459096     1.73200
Fe201      Fe  0.73781930  0.08400804  0.12370132     1.54400
O202        O  0.73212419  0.07834113  0.17193871    -0.81900
O203        O  0.69469281  0.11968294  0.06676084    -0.80200
O204        O  0.69346111  0.03835752  0.17516425    -0.84400
O205        O  0.70731026  0.01212923  0.11096862    -0.79200
O206        O  0.72615491  0.12925558  0.12859739    -0.81000
O207        O  0.63656084  0.07463073  0.05924256    -0.83700
C208        C  0.74375533  0.01522924  0.11487755     0.97000
C209        C  0.71991136  0.05572962  0.18704480     1.04500
O210        O  0.68270298  0.07474581  0.11662882    -1.12700
O211        O  0.59889648  0.09316705  0.11878025    -0.75200
O212        O  0.61196507  0.05445500  0.15060751    -0.78600
O213        O  0.75899171  0.04030415  0.12071194    -0.79300
C214        C  0.58854130  0.07461745  0.14017077     0.95900
O215        O  0.63351765  0.03036262  0.08408883    -0.77300
O216        O  0.66184643  0.13718005  0.12768951    -0.82500
C217        C  0.72948347  0.11166766  0.06031237     0.98500
C218        C  0.69664206  0.14658524  0.13124318     1.04500
O219        O  0.74630788  0.09052334  0.07549398    -0.78100
C220        C  0.63132441  0.04679514  0.05849969     1.02800
Fe221      Fe  0.16176761  0.22250598  0.87130417     1.65800
Fe222      Fe  0.14577207  0.15791117  0.91277718     1.73200
Fe223      Fe  0.23843425  0.17574656  0.88890619     1.54400
O224        O  0.23783696  0.18375561  0.84017417    -0.81900
O225        O  0.18599408  0.14608176  0.94755391    -0.80200
O226        O  0.18481621  0.21119217  0.82608990    -0.84400
O227        O  0.21091842  0.24704093  0.87879840    -0.79200
O228        O  0.22708564  0.13090131  0.88112942    -0.81000
O229        O  0.12719798  0.19203811  0.94235853    -0.83700
C230        C  0.24644125  0.24399361  0.88690672     0.97000
C231        C  0.21698547  0.19772293  0.81922343     1.04500
O232        O  0.18198238  0.18530498  0.89066562    -1.12700
O233        O  0.09833065  0.16400778  0.88209811    -0.75200
O234        O  0.10695555  0.20719319  0.85797531    -0.78600
O235        O  0.26034232  0.21891424  0.89593283    -0.79300
C236        C  0.08582372  0.18491613  0.86415189     0.95900
O237        O  0.14159475  0.23508533  0.91707595    -0.77300
O238        O  0.16336013  0.12125747  0.88636634    -0.82500
C239        C  0.22130600  0.15109638  0.95499554     0.98500
C240        C  0.19831316  0.11299412  0.88043351     1.04500
O241        O  0.24392925  0.16663134  0.93767770    -0.78100
C242        C  0.13046907  0.22026924  0.94194243     1.02800
Fe243      Fe  0.35311192  0.01937135  0.14287123     1.65800
Fe244      Fe  0.35589291  0.08301940  0.09798705     1.73200
Fe245      Fe  0.26934317  0.05931350  0.12716325     1.54400
O246        O  0.25530818  0.01430264  0.12595845    -0.81900
O247        O  0.33768067  0.11811589  0.12616578    -0.80200
O248        O  0.31154223  0.98952122  0.12913255    -0.84400
O249        O  0.32292716  0.02527353  0.18742915    -0.79200
O250        O  0.26091460  0.06231885  0.07798634    -0.81000
O251        O  0.40757447  0.07874619  0.12391040    -0.83700
C252        C  0.29138336  0.03920693  0.19553848     0.97000
C253        C  0.27466200  0.99007788  0.12766173     1.04500
O254        O  0.32625251  0.05391762  0.12338972    -1.12700
O255        O  0.37344085  0.05025372  0.06729031    -0.75200
O256        O  0.38144397  0.00978766  0.09834067    -0.78600
O257        O  0.27220142  0.05610225  0.17628678    -0.79300
C258        C  0.38298353  0.02301716  0.07068907     0.95900
O259        O  0.40108606  0.04303365  0.16037734    -0.77300
O260        O  0.31060934  0.09220481  0.06669603    -0.82500
C261        C  0.30183543  0.12493336  0.13054260     0.98500
C262        C  0.27761229  0.08117421  0.06004017     1.04500
O263        O  0.27462031  0.10561325  0.12970386    -0.78100
C264        C  0.42143920  0.06299341  0.14690785     1.02800
Fe265      Fe  0.34455685  0.47258666  0.87176358     1.65800
Fe266      Fe  0.36030819  0.40667968  0.91091003     1.73200
Fe267      Fe  0.26998271  0.42471984  0.88291082     1.54400
O268        O  0.24832592  0.46877462  0.88226009    -0.81900
O269        O  0.34583575  0.37126490  0.88127165    -0.80200
O270        O  0.30002090  0.49716429  0.89083215    -0.84400
O271        O  0.31227650  0.46785516  0.82781641    -0.79200
O272        O  0.26324831  0.42107949  0.93211046    -0.81000
O273        O  0.40929608  0.41665315  0.88342042    -0.83700
C274        C  0.28745082  0.44890578  0.81692790     0.97000
C275        C  0.26368542  0.49421866  0.88610580     1.04500
O276        O  0.32524470  0.43467587  0.88809217    -1.12700
O277        O  0.37549218  0.43871833  0.94362491    -0.75200
O278        O  0.37592114  0.48103713  0.91535378    -0.78600
O279        O  0.27482884  0.42744946  0.83400125    -0.79300
C280        C  0.38163863  0.46651748  0.94182927     0.95900
O281        O  0.39260596  0.45364755  0.85019604    -0.77300
O282        O  0.31681115  0.39357180  0.94193384    -0.82500
C283        C  0.31089779  0.36172516  0.87865623     0.98500
C284        C  0.28271300  0.40242798  0.94931753     1.04500
O285        O  0.28138639  0.37899529  0.88131133    -0.78100
C286        C  0.41754963  0.43499837  0.86094207     1.02800
Fe287      Fe  0.15211307  0.27217264  0.14000370     1.65800
Fe288      Fe  0.14011225  0.33486531  0.09343262     1.73200
Fe289      Fe  0.23140354  0.31142757  0.11661682     1.54400
O290        O  0.23362546  0.30797456  0.16630472    -0.81900
O291        O  0.17936777  0.34220469  0.05734638    -0.80200
O292        O  0.17818336  0.28623560  0.18378179    -0.84400
O293        O  0.19812621  0.24318726  0.13454202    -0.79200
O294        O  0.22550939  0.35721440  0.12018890    -0.81000
O295        O  0.11708952  0.30005755  0.06703712    -0.83700
C296        C  0.23248183  0.24307181  0.12372318     0.97000
C297        C  0.21179211  0.29834333  0.18879775     1.04500
O298        O  0.17445973  0.30634309  0.11720124    -1.12700
O299        O  0.09419299  0.33438353  0.12490607    -0.75200
O300        O  0.09952483  0.29216679  0.15174452    -0.78600
O301        O  0.24753717  0.26665127  0.11258520    -0.79300
C302        C  0.08044251  0.31539729  0.14421511     0.95900
O303        O  0.12971420  0.25771410  0.09521390    -0.77300
O304        O  0.16278401  0.37142229  0.11697288    -0.82500
C305        C  0.21287477  0.33297715  0.04937103     0.98500
C306        C  0.19895023  0.37727056  0.12076191     1.04500
O307        O  0.23324947  0.31538646  0.06703119    -0.78100
C308        C  0.11963634  0.27176387  0.06921034     1.02800
Fe309      Fe  0.65232139  0.48782136  0.86579969     1.65800
Fe310      Fe  0.64282946  0.42509595  0.91210029     1.73200
Fe311      Fe  0.73282206  0.44628166  0.88752739     1.54400
O312        O  0.73340025  0.45127049  0.83837165    -0.81900
O313        O  0.68417448  0.41476813  0.94597358    -0.80200
O314        O  0.68074767  0.47761583  0.82209317    -0.84400
O315        O  0.69696132  0.51663742  0.87667072    -0.79200
O316        O  0.72509596  0.40052339  0.88244325    -0.81000
O317        O  0.62457052  0.45910992  0.94095657    -0.83700
C318        C  0.73243531  0.51522159  0.88575561     0.97000
C319        C  0.71324776  0.46421345  0.81625586     1.04500
O320        O  0.67596588  0.45309160  0.88798715    -1.12700
O321        O  0.59442380  0.42902608  0.88333629    -0.75200
O322        O  0.60204236  0.46631773  0.84921972    -0.78600
O323        O  0.74918596  0.49065425  0.89272128    -0.79300
C324        C  0.58222390  0.44476667  0.86005162     0.95900
O325        O  0.62611069  0.50025641  0.90985457    -0.77300
O326        O  0.66142025  0.38936490  0.88550255    -0.82500
C327        C  0.71797632  0.42322251  0.95386429     0.98500
C328        C  0.69697509  0.38200770  0.88103673     1.04500
O329        O  0.73793271  0.44082852  0.93677000    -0.78100
C330        C  0.62080915  0.48704280  0.93717270     1.02800
Fe331      Fe  0.84426052  0.28612263  0.13485646     1.65800
Fe332      Fe  0.85539648  0.35056099  0.09352448     1.73200
Fe333      Fe  0.76695814  0.33276415  0.12365334     1.54400
O334        O  0.74689616  0.28854960  0.12756455    -0.81900
O335        O  0.84099770  0.38613485  0.12225848    -0.80200
O336        O  0.79901868  0.26108703  0.11768596    -0.84400
O337        O  0.81454927  0.29270464  0.17878606    -0.79200
O338        O  0.75782709  0.33416217  0.07443780    -0.81000
O339        O  0.90569952  0.34279521  0.12068872    -0.83700
C340        C  0.78875980  0.31099124  0.18945681     0.97000
C341        C  0.76344686  0.26324412  0.12504426     1.04500
O342        O  0.82252718  0.32317461  0.11784207    -1.12700
O343        O  0.87009570  0.31794964  0.06167745    -0.75200
O344        O  0.87283620  0.27615345  0.09087970    -0.78600
O345        O  0.77427071  0.33211621  0.17245396    -0.79300
C346        C  0.87627486  0.29015722  0.06393877     0.95900
O347        O  0.89323778  0.30583472  0.15476641    -0.77300
O348        O  0.81034796  0.36157146  0.06276142    -0.82500
C349        C  0.80606510  0.39578531  0.12449065     0.98500
C350        C  0.77651062  0.35181532  0.05611113     1.04500
O351        O  0.77661499  0.37862662  0.12276362    -0.78100
C352        C  0.91576776  0.32579088  0.14399798     1.02800
C353        C  0.76513652  0.38773985  0.97519500    -0.06000
C354        C  0.73540789  0.40838572  0.98187906     0.00000
C355        C  0.71634838  0.40767049  0.01203885    -0.08600
C356        C  0.72732608  0.38564044  0.03448561    -0.06000
C357        C  0.75760874  0.36547547  0.02805976    -0.00100
C358        C  0.77658612  0.36605877  0.99791484    -0.08500
C359        C  0.80975616  0.34468361  0.99010686     0.61900
H360        H  0.77853785  0.38808012  0.95157888     0.12500
H361        H  0.71418329  0.38566529  0.05822760     0.12600
C362        C  0.68551148  0.43008796  0.02223744     0.62100
F363        F  0.81358398  0.34142854  0.95705564    -0.23100
F364        F  0.80280711  0.31681397  0.00326052    -0.20400
F365        F  0.84458352  0.35549992  0.00254558    -0.20100
F366        F  0.65052183  0.41552689  0.02723219    -0.20100
F367        F  0.67937718  0.45262554  0.99975079    -0.20500
F368        F  0.69731686  0.44311165  0.05090332    -0.23100
C369        C  0.02163828  0.34795733  0.15005835    -0.06000
C370        C  0.03934843  0.31990388  0.15572715     0.00000
C371        C  0.01550593  0.29638954  0.16768479    -0.08600
C372        C  0.97448213  0.30037018  0.16727567    -0.06000
C373        C  0.95684504  0.32706337  0.15648096    -0.00100
C374        C  0.98087294  0.35219473  0.15160991    -0.08500
C375        C  0.96437287  0.38333650  0.14655279     0.61900
H376        H  0.03965416  0.36666668  0.14303439     0.12500
H377        H  0.95585151  0.28157062  0.17258852     0.12600
C378        C  0.03224794  0.26661215  0.17911736     0.62100
F379        F  0.98866427  0.40394311  0.16112405    -0.23100
F380        F  0.92771596  0.38630070  0.16018397    -0.20400
F381        F  0.96178345  0.38971067  0.11384721    -0.20100
F382        F  0.06149232  0.27120893  0.20195374    -0.20100
F383        F  0.04715656  0.25108729  0.15324175    -0.20500
F384        F  0.00403499  0.24904092  0.19344040    -0.23100
C385        C  0.48207981  0.41017835  0.85364397    -0.06000
C386        C  0.45877453  0.43581275  0.84897027     0.00000
C387        C  0.47721953  0.46247351  0.83810178    -0.08600
C388        C  0.51855909  0.46363075  0.83818264    -0.06000
C389        C  0.54163177  0.43913364  0.84796481    -0.00100
C390        C  0.52319683  0.41115981  0.85232963    -0.08500
C391        C  0.54635260  0.38246969  0.85744247     0.61900
H392        H  0.46807181  0.38947751  0.86025213     0.12500
H393        H  0.53301593  0.48456743  0.83353156     0.12600
C394        C  0.45420022  0.49035762  0.82851324     0.62100
F395        F  0.52435375  0.35804550  0.84848656    -0.23100
F396        F  0.55677109  0.37916192  0.88968115    -0.20400
F397        F  0.57974881  0.38263235  0.83879038    -0.20100
F398        F  0.43499039  0.50160672  0.85503945    -0.20100
F399        F  0.42731245  0.48368495  0.80439733    -0.20500
F400        F  0.47825976  0.51249676  0.81663907    -0.23100
C401        C  0.26807056  0.35946884  0.02687104    -0.06000
C402        C  0.23087518  0.34729913  0.02122482     0.00000
C403        C  0.20958783  0.35540583  0.99271370    -0.08600
C404        C  0.22651972  0.37556813  0.97105154    -0.06000
C405        C  0.26397262  0.38718596  0.97651178    -0.00100
C406        C  0.28486199  0.37968105  0.00524182    -0.08500
C407        C  0.32357773  0.39423008  0.01404615     0.61900
H408        H  0.28329718  0.35408835  0.04933733     0.12500
H409        H  0.21099311  0.38119489  0.94874912     0.12600
C410        C  0.16964682  0.34330439  0.98331732     0.62100
F411        F  0.33375287  0.38926011  0.04614559    -0.23100
F412        F  0.32051235  0.42466891  0.00921455    -0.20400
F413        F  0.35336454  0.38293721  0.99531959    -0.20100
F414        F  0.14211637  0.36600834  0.98461556    -0.20100
F415        F  0.15778842  0.32015529  0.00287883    -0.20500
F416        F  0.17079955  0.33276929  0.95201238    -0.23100
C417        C  0.39930637  0.02448219  0.01174154    -0.06000
C418        C  0.39385288  0.00693838  0.03992299     0.00000
C419        C  0.39450829  0.97551204  0.03636246    -0.08600
C420        C  0.39571892  0.46426948  0.00148415    -0.06000
C421        C  0.39343961  0.48183513  0.97295375    -0.00100
C422        C  0.39960252  0.51292956  0.97607337    -0.08500
C423        C  0.40421473  0.53329179  0.94689367     0.61900
H424        H  0.40151384  0.04835952  0.01428955     0.12500
H425        H  0.39413186  0.44034219  0.99935117     0.12600
C426        C  0.39309112  0.95444679  0.06523106     0.62100
F427        F  0.41714108  0.06116972  0.96110236    -0.23100
F428        F  0.36873861  0.53646381  0.93066621    -0.20400
F429        F  0.43196742  0.52152627  0.92640551    -0.20100
F430        F  0.35707389  0.95684913  0.07997345    -0.20100
F431        F  0.42266789  0.96122200  0.08705326    -0.20500
F432        F  0.40499141  0.42647145  0.05305665    -0.23100
C433        C  0.22103255  0.45905509  0.10430718    -0.06000
C434        C  0.25531578  0.46226603  0.12307441     0.00000
C435        C  0.26693433  0.43881272  0.14463269    -0.08600
C436        C  0.24491904  0.41257179  0.14512501    -0.06000
C437        C  0.21251138  0.40840543  0.12460080    -0.00100
C438        C  0.19961227  0.43227275  0.10424737    -0.08500
C439        C  0.16471939  0.42917443  0.08142210     0.61900
H440        H  0.20763753  0.97722075  0.09782528     0.12500
H441        H  0.25420896  0.39415855  0.16053516     0.12600
C442        C  0.30269921  0.44070377  0.16692838     0.62100
F443        F  0.15807972  0.45478006  0.06323570    -0.23100
F444        F  0.13130306  0.42357949  0.09896749    -0.20400
F445        F  0.17127701  0.40605386  0.06028258    -0.20100
F446        F  0.30177611  0.46676229  0.18434237    -0.20100
F447        F  0.33649910  0.43961913  0.14888000    -0.20500
F448        F  0.30434341  0.41739073  0.18903775    -0.23100
C449        C  0.30213897  0.17664129  0.10879763    -0.06000
C450        C  0.29009133  0.15674019  0.13309991     0.00000
C451        C  0.26277378  0.16654203  0.15608334    -0.08600
C452        C  0.24492564  0.19461786  0.15168966    -0.06000
C453        C  0.25520945  0.21430189  0.12642467    -0.00100
C454        C  0.28573317  0.20556849  0.10536064    -0.08500
C455        C  0.30016229  0.22601050  0.07876212     0.61900
H456        H  0.32348214  0.16883748  0.09162015     0.12500
H457        H  0.22201730  0.20107898  0.16803444     0.12600
C458        C  0.25275133  0.14763628  0.18542512     0.62100
F459        F  0.32771829  0.21215710  0.05962711    -0.23100
F460        F  0.31753066  0.25074296  0.09231646    -0.20400
F461        F  0.26910245  0.23487457  0.05906173    -0.20100
F462        F  0.28656613  0.13525494  0.19881380    -0.20100
F463        F  0.22750153  0.12513554  0.17658707    -0.20500
F464        F  0.23495848  0.16446598  0.20906978    -0.23100
C465        C  0.25535179  0.04290364  0.86223362    -0.06000
C466        C  0.24033037  0.02303421  0.88535414     0.00000
C467        C  0.20588362  0.03102494  0.90198668    -0.08600
C468        C  0.19022383  0.06008190  0.89741716    -0.06000
C469        C  0.20742502  0.08077303  0.87614004    -0.00100
C470        C  0.23860802  0.07114435  0.85644990    -0.08500
C471        C  0.25551990  0.09057127  0.82994544     0.61900
H472        H  0.28088114  0.03627379  0.84864950     0.12500
H473        H  0.16596728  0.06744370  0.91200732     0.12600
C474        C  0.19629949  0.51018864  0.92930021     0.62100
F475        F  0.26952089  0.07319612  0.80506449    -0.23100
F476        F  0.28612045  0.10713113  0.84232904    -0.20400
F477        F  0.22722795  0.10955115  0.81690784    -0.20100
F478        F  0.22740302  0.50237012  0.94946777    -0.20100
F479        F  0.18106959  0.48474449  0.91555959    -0.20500
F480        F  0.15510998  0.02232378  0.94055421    -0.23100
C481        C  0.26181000  0.28946050  0.85574163    -0.06000
C482        C  0.27123467  0.27117154  0.88266509     0.00000
C483        C  0.30062707  0.28082519  0.90460035    -0.08600
C484        C  0.31577605  0.31000311  0.90094553    -0.06000
C485        C  0.30294315  0.32927711  0.87580635    -0.00100
C486        C  0.27700967  0.31826580  0.85190999    -0.08500
C487        C  0.26506400  0.33695372  0.82253958     0.61900
H488        H  0.24079473  0.28139969  0.83810606     0.12500
H489        H  0.33609712  0.31860286  0.91880467     0.12600
C490        C  0.31503090  0.26091955  0.93204985     0.62100
F491        F  0.24451077  0.32045931  0.79995718    -0.23100
F492        F  0.29817062  0.34797218  0.80779658    -0.20400
F493        F  0.24136646  0.36042508  0.83163844    -0.20100
F494        F  0.33314973  0.23598514  0.91955597    -0.20100
F495        F  0.28391843  0.25213036  0.95072764    -0.20500
F496        F  0.34171175  0.27524653  0.95187948    -0.23100
C497        C  0.09003422  0.23349214  0.99015304    -0.06000
C498        C  0.12572303  0.23551126  0.97344337     0.00000
C499        C  0.15894621  0.24723448  0.98964297    -0.08600
C500        C  0.15535869  0.25666878  0.02170348    -0.06000
C501        C  0.11966532  0.25588609  0.03795974    -0.00100
C502        C  0.08621140  0.24426748  0.02212039    -0.08500
C503        C  0.04717795  0.24319420  0.03904287     0.61900
H504        H  0.06519520  0.22354321  0.97791079     0.12500
H505        H  0.18048152  0.26602115  0.03418576     0.12600
C506        C  0.19840796  0.24965505  0.97333836     0.62100
F507        F  0.01872193  0.22958245  0.02027622    -0.23100
F508        F  0.03464820  0.27181102  0.04570224    -0.20400
F509        F  0.05122862  0.22733966  0.06770436    -0.20100
F510        F  0.19586335  0.27016329  0.94831329    -0.20100
F511        F  0.20958635  0.22236581  0.96119978    -0.20500
F512        F  0.22740454  0.25884392  0.99465830    -0.23100
C513        C  0.23387081  0.11898652  0.03877032    -0.06000
C514        C  0.25720759  0.09400839  0.03218304     0.00000
C515        C  0.26977278  0.08854594  0.00039104    -0.08600
C516        C  0.25939189  0.10911561  0.97609847    -0.06000
C517        C  0.23695320  0.13455554  0.98284399    -0.00100
C518        C  0.22374963  0.13970453  0.01451962    -0.08500
C519        C  0.20186744  0.16802272  0.02307806     0.61900
H520        H  0.22613838  0.12329095  0.06362466     0.12500
H521        H  0.26809890  0.10490382  0.95142094     0.12600
C522        C  0.29449352  0.06181792  0.99106236     0.62100
F523        F  0.19246240  0.16881877  0.05551126    -0.23100
F524        F  0.16742340  0.17045345  0.00530823    -0.20400
F525        F  0.22536087  0.19216720  0.01644150    -0.20100
F526        F  0.29930097  0.04135677  0.01599241    -0.20100
F527        F  0.33100138  0.07148629  0.98165825    -0.20500
F528        F  0.27675129  0.04740442  0.96540212    -0.23100
C529        C  0.73931478  0.18487383  0.15396755    -0.06000
C530        C  0.70532875  0.17870236  0.13609527     0.00000
C531        C  0.68646372  0.20226598  0.11859027    -0.08600
C532        C  0.70538755  0.23018947  0.11640110    -0.06000
C533        C  0.74177945  0.23514792  0.13160970    -0.00100
C534        C  0.75765300  0.21264616  0.15257787    -0.08500
C535        C  0.79278429  0.21781425  0.17478058     0.61900
H536        H  0.75246324  0.16701765  0.16822269     0.12500
H537        H  0.69276490  0.24791416  0.10166603     0.12600
C538        C  0.64724364  0.19791891  0.10170666     0.62100
F539        F  0.80048729  0.19362922  0.19492303    -0.23100
F540        F  0.78489970  0.24177112  0.19428020    -0.20400
F541        F  0.82624209  0.22297509  0.15720545    -0.20100
F542        F  0.61987848  0.18881688  0.12403194    -0.20100
F543        F  0.65055436  0.17667694  0.07793711    -0.20500
F544        F  0.63351925  0.22399465  0.08735525    -0.23100
C545        C  0.80725366  0.44540426  0.09810485    -0.06000
C546        C  0.79845951  0.42820467  0.12566793     0.00000
C547        C  0.77757073  0.44129797  0.15122292    -0.08600
C548        C  0.76460070  0.47090609  0.14775055    -0.06000
C549        C  0.77092625  0.48742599  0.11935934    -0.00100
C550        C  0.79318556  0.47490336  0.09429496    -0.08500
C551        C  0.80042425  0.49223408  0.06339966     0.61900
H552        H  0.82298394  0.43487520  0.07864780     0.12500
H553        H  0.74708201  0.48086170  0.16653287     0.12600
C554        C  0.76729572  0.42367907  0.18134994     0.62100
F555        F  0.82273899  0.47607735  0.04190730    -0.23100
F556        F  0.78704447  0.00787524  0.04963035    -0.20400
F557        F  0.76504403  0.49936123  0.04846668    -0.20100
F558        F  0.80008257  0.40868158  0.19315659    -0.20100
F559        F  0.73838360  0.40334405  0.17398515    -0.20500
F560        F  0.75364061  0.44199955  0.20555519    -0.23100
C561        C  0.64196332  0.02933283  0.96861959    -0.06000
C562        C  0.61590810  0.50498920  0.96716093     0.00000
C563        C  0.59621942  0.49453922  0.99520572    -0.08600
C564        C  0.60252809  0.50905207  0.02503996    -0.06000
C565        C  0.62483871  0.03366113  0.02566537    -0.00100
C566        C  0.64794757  0.04275068  0.99877064    -0.08500
C567        C  0.68105328  0.06502974  0.00199090     0.61900
H568        H  0.66067561  0.03513911  0.94859088     0.12500
H569        H  0.58850009  0.50081266  0.04666295     0.12600
C570        C  0.56829388  0.46839493  0.99387336     0.62100
F571        F  0.70432614  0.06606930  0.97482176    -0.23100
F572        F  0.70485722  0.05695392  0.02788765    -0.20400
F573        F  0.66580627  0.09328052  0.00641787    -0.20100
F574        F  0.58905269  0.44195190  0.99217770    -0.20100
F575        F  0.54379169  0.47118121  0.96711826    -0.20500
F576        F  0.54504590  0.46707714  0.02103405    -0.23100
C577        C  0.48005699  0.09539189  0.14837487    -0.06000
C578        C  0.46380044  0.06752017  0.15584688     0.00000
C579        C  0.48969273  0.04392174  0.16530051    -0.08600
C580        C  0.53060276  0.04822617  0.16284618    -0.06000
C581        C  0.54656472  0.07494032  0.15093600    -0.00100
C582        C  0.52077288  0.09967448  0.14572733    -0.08500
C583        C  0.53517725  0.13032555  0.13573535     0.61900
H584        H  0.46027551  0.11359373  0.14218105     0.12500
H585        H  0.55032793  0.02972972  0.16783428     0.12600
C586        C  0.47469655  0.01367133  0.17594841     0.62100
F587        F  0.50679731  0.15204312  0.14025352    -0.23100
F588        F  0.54460472  0.13043671  0.10332048    -0.20400
F589        F  0.56766311  0.13798587  0.15410370    -0.20100
F590        F  0.45419723  0.00057001  0.15085029    -0.20100
F591        F  0.45047805  0.01698945  0.20225050    -0.20500
F592        F  0.50491810  0.99452068  0.18509351    -0.23100
C593        C  0.87871603  0.23408384  0.99418485    -0.06000
C594        C  0.88965666  0.25250290  0.96816811     0.00000
C595        C  0.90188988  0.28186936  0.97491704    -0.08600
C596        C  0.90069932  0.29201964  0.00717924    -0.06000
C597        C  0.88597676  0.27449226  0.03285940    -0.00100
C598        C  0.87544069  0.24458604  0.02611782    -0.08500
C599        C  0.85788048  0.22423955  0.05150976     0.61900
H600        H  0.87007899  0.21156276  0.98888582     0.12500
H601        H  0.90941834  0.31463380  0.01224170     0.12600
C602        C  0.91620163  0.30245906  0.94839058     0.62100
F603        F  0.84918316  0.19637791  0.03944077    -0.23100
F604        F  0.82335377  0.23662528  0.06236176    -0.20400
F605        F  0.88398711  0.22029322  0.07703465    -0.20100
F606        F  0.88540897  0.31018016  0.92791502    -0.20100
F607        F  0.94512637  0.28833342  0.93096821    -0.20500
F608        F  0.93176834  0.32843907  0.96075416    -0.23100
C609        C  0.74614251  0.31055368  0.85575056    -0.06000
C610        C  0.74139369  0.29271320  0.88371324     0.00000
C611        C  0.71603404  0.30296038  0.90824093    -0.08600
C612        C  0.69940998  0.33172333  0.90503591    -0.06000
C613        C  0.70716273  0.35017848  0.87831601    -0.00100
C614        C  0.72930890  0.33904671  0.85253997    -0.08500
C615        C  0.73452052  0.35699169  0.82161368     0.61900
H616        H  0.76421359  0.30226761  0.83643437     0.12500
H617        H  0.68207421  0.34082122  0.92439924     0.12600
C618        C  0.70823387  0.28472138  0.93841959     0.62100
F619        F  0.75351111  0.34069375  0.79817718    -0.23100
F620        F  0.75636703  0.38216280  0.82763535    -0.20400
F621        F  0.69814109  0.36540546  0.80937966    -0.20100
F622        F  0.74318009  0.27921135  0.95468359    -0.20100
F623        F  0.69086332  0.25810778  0.93010064    -0.20500
F624        F  0.68330281  0.29933610  0.95926184    -0.23100
C625        C  0.80220032  0.07970658  0.90553816    -0.06000
C626        C  0.79052992  0.10055458  0.88148554     0.00000
C627        C  0.76464404  0.09109496  0.85662001    -0.08600
C628        C  0.74821359  0.06244807  0.85864910    -0.06000
C629        C  0.75760936  0.04220239  0.88384800    -0.00100
C630        C  0.78673918  0.05045093  0.90685583    -0.08500
C631        C  0.78652987  0.53383911  0.94082188     0.61900
H632        H  0.82259404  0.08688422  0.92409231     0.12500
H633        H  0.72728580  0.05568631  0.84030681     0.12600
C634        C  0.75507739  0.11070469  0.82739659     0.62100
F635        F  0.82774670  0.04186536  0.95379764    -0.23100
F636        F  0.80690717  0.50844741  0.93227057    -0.20400
F637        F  0.75118098  0.52585580  0.95430549    -0.20100
F638        F  0.78924080  0.12251159  0.81516878    -0.20100
F639        F  0.73001540  0.13355773  0.83589843    -0.20500
F640        F  0.73707985  0.09476988  0.80294490    -0.23100
C641        C  0.97791410  0.16455075  0.85453303    -0.06000
C642        C  0.96091202  0.19294810  0.84987834     0.00000
C643        C  0.98594260  0.21681043  0.84081150    -0.08600
C644        C  0.02691535  0.21243976  0.84299743    -0.06000
C645        C  0.04379757  0.18505371  0.85282943    -0.00100
C646        C  0.01880165  0.16000185  0.85556398    -0.08500
C647        C  0.03440204  0.12856614  0.86076238     0.61900
H648        H  0.95899982  0.14587046  0.85953650     0.12500
H649        H  0.04595492  0.23127974  0.83919456     0.12600
C650        C  0.97040277  0.24715276  0.82993425     0.62100
F651        F  0.00628603  0.10757107  0.85323210    -0.23100
F652        F  0.04541013  0.12442741  0.89276523    -0.20400
F653        F  0.06617672  0.12352866  0.84103382    -0.20100
F654        F  0.95612310  0.26262306  0.85608403    -0.20100
F655        F  0.94097456  0.24370404  0.80698710    -0.20500
F656        F  0.99941396  0.26422210  0.81598032    -0.23100
C657        C  0.73418506  0.15757056  0.02800224    -0.06000
C658        C  0.75071357  0.12954197  0.03610813     0.00000
C659        C  0.78699252  0.12099476  0.02233880    -0.08600
C660        C  0.80329647  0.13997982  0.99921437    -0.06000
C661        C  0.78479689  0.16669958  0.98948763    -0.00100
C662        C  0.75121974  0.17668066  0.00562641    -0.08500
C663        C  0.73240787  0.20702760  0.00017817     0.61900
H664        H  0.70763935  0.16510298  0.03950302     0.12500
H665        H  0.82943150  0.13292740  0.98675298     0.12600
C666        C  0.80793143  0.09174002  0.03029800     0.62100
F667        F  0.72413882  0.21981908  0.02966432    -0.23100
F668        F  0.69778663  0.20384762  0.98286015    -0.20400
F669        F  0.75670587  0.22627929  0.98382645    -0.20100
F670        F  0.84159764  0.08795783  0.01238023    -0.20100
F671        F  0.78346952  0.06817338  0.02352528    -0.20500
F672        F  0.81901712  0.09094798  0.06254810    -0.23100
C673        C  0.77220502  0.29616198  0.27901522    -0.06000
C674        C  0.73098698  0.29880053  0.28063963     0.00000
C675        C  0.70907632  0.30390651  0.25195570    -0.08600
C676        C  0.72951670  0.30764547  0.22284477    -0.06000
C677        C  0.77081754  0.30601729  0.22148821    -0.00100
C678        C  0.79259888  0.29962729  0.24993152    -0.08500
C679        C  0.83704777  0.29756020  0.24992783     0.61900
H680        H  0.78857899  0.29159916  0.30111445     0.12500
H681        H  0.71320791  0.31178026  0.20062054     0.12600
C682        C  0.66467446  0.30604073  0.25209700     0.62100
F683        F  0.85249573  0.29445892  0.28088412    -0.23100
F684        F  0.85241079  0.32312121  0.23634802    -0.20400
F685        F  0.84882552  0.27313413  0.23233367    -0.20100
F686        F  0.65287111  0.32788023  0.27331444    -0.20100
F687        F  0.64926579  0.27898931  0.26154448    -0.20500
F688        F  0.64939604  0.31310552  0.22181729    -0.23100
C689        C  0.77157845  0.45716824  0.78146704    -0.06000
C690        C  0.73089151  0.46360090  0.78307716     0.00000
C691        C  0.70991492  0.46866612  0.75362403    -0.08600
C692        C  0.72952642  0.46404188  0.72415152    -0.06000
C693        C  0.76961757  0.45649825  0.72303243    -0.00100
C694        C  0.79136118  0.45404237  0.75205375    -0.08500
C695        C  0.83513337  0.44772616  0.75189733     0.61900
H696        H  0.78835927  0.45473320  0.80370672     0.12500
H697        H  0.71365178  0.46646982  0.70143354     0.12600
C698        C  0.66743545  0.47899095  0.75289969     0.62100
F699        F  0.85035020  0.44373377  0.78281054    -0.23100
F700        F  0.85425577  0.47143365  0.73774234    -0.20400
F701        F  0.84270134  0.42216355  0.73457874    -0.20100
F702        F  0.66425753  0.50617900  0.76814222    -0.20100
F703        F  0.64423683  0.45828363  0.76832345    -0.20500
F704        F  0.65320113  0.48268429  0.72162821    -0.23100
C705        C  0.77964317  0.35441805  0.52628038    -0.06000
C706        C  0.76839405  0.38443267  0.53080769     0.00000
C707        C  0.74566559  0.39929216  0.50697889    -0.08600
C708        C  0.73341166  0.38303623  0.48004719    -0.06000
C709        C  0.74259603  0.35257928  0.47653125    -0.00100
C710        C  0.76700955  0.33806309  0.49948523    -0.08500
C711        C  0.77892640  0.30554217  0.49630918     0.61900
H712        H  0.79819737  0.34359120  0.54426239     0.12500
H713        H  0.71602681  0.39407686  0.46145375     0.12600
C714        C  0.73500684  0.43207301  0.50948589     0.62100
F715        F  0.79949435  0.29522511  0.52325336    -0.23100
F716        F  0.80272726  0.30218987  0.46975740    -0.20400
F717        F  0.74597590  0.28806926  0.49259943    -0.20100
F718        F  0.76840227  0.44859721  0.51525480    -0.20100
F719        F  0.70899150  0.43609148  0.53445187    -0.20500
F720        F  0.71747501  0.44289140  0.48135835    -0.23100
C721        C  0.22529137  0.32734097  0.23844872    -0.06000
C722        C  0.22876812  0.30045520  0.22184001     0.00000
C723        C  0.25539857  0.27851265  0.23360589    -0.08600
C724        C  0.27684135  0.28369053  0.26223303    -0.06000
C725        C  0.27102645  0.30942085  0.28062522    -0.00100
C726        C  0.24596162  0.33237978  0.26768886    -0.08500
C727        C  0.24227883  0.36274568  0.28339865     0.61900
H728        H  0.20649176  0.34453803  0.22809062     0.12500
H729        H  0.29705024  0.26681703  0.27123374     0.12600
C730        C  0.26058034  0.24943931  0.21594610     0.62100
F731        F  0.22627637  0.38373878  0.26226860    -0.23100
F732        F  0.27893182  0.37268093  0.29275472    -0.20400
F733        F  0.21826393  0.36109690  0.31000885    -0.20100
F734        F  0.27587667  0.25493372  0.18574594    -0.20100
F735        F  0.22450885  0.23591286  0.21279979    -0.20500
F736        F  0.28564333  0.22996589  0.23224693    -0.23100
C737        C  0.52202398  0.34306035  0.35419540    -0.06000
C738        C  0.54104653  0.31541947  0.35083311     0.00000
C739        C  0.51813215  0.29011089  0.34272090    -0.08600
C740        C  0.47692061  0.29260999  0.34367002    -0.06000
C741        C  0.45809125  0.31949186  0.35149070    -0.00100
C742        C  0.48089696  0.34571561  0.35354312    -0.08500
C743        C  0.46241545  0.37642893  0.35598097     0.61900
H744        H  0.53957570  0.36258789  0.35892515     0.12500
H745        H  0.45923477  0.27289761  0.34070171     0.12600
C746        C  0.53654239  0.26013648  0.33486750     0.62100
F747        F  0.48802426  0.39824106  0.34577094    -0.23100
F748        F  0.45263662  0.38212669  0.38766275    -0.20400
F749        F  0.42915827  0.37834430  0.33653912    -0.20100
F750        F  0.55765049  0.24932192  0.36126085    -0.20100
F751        F  0.56106901  0.26327443  0.30869870    -0.20500
F752        F  0.50865194  0.23913865  0.32681884    -0.23100
C753        C  0.22944948  0.44422349  0.78092654    -0.06000
C754        C  0.26928910  0.45222017  0.78407261     0.00000
C755        C  0.28974641  0.46136504  0.75617911    -0.08600
C756        C  0.26961661  0.46162814  0.72616402    -0.06000
C757        C  0.22999060  0.45325337  0.72317025    -0.00100
C758        C  0.20955613  0.44423286  0.75093204    -0.08500
C759        C  0.16775346  0.43306756  0.74863277     0.61900
H760        H  0.21387432  0.43748019  0.80238514     0.12500
H761        H  0.28481687  0.46837390  0.70450420     0.12600
C762        C  0.33262645  0.47008259  0.75774808     0.62100
F763        F  0.15415383  0.42342109  0.77828981    -0.23100
F764        F  0.16599639  0.40939628  0.72751051    -0.20400
F765        F  0.14317955  0.45562336  0.73754074    -0.20100
F766        F  0.35438410  0.44801836  0.77331360    -0.20100
F767        F  0.33644373  0.49649079  0.77437055    -0.20500
F768        F  0.34807824  0.47413960  0.72725429    -0.23100
C769        C  0.02158611  0.45601544  0.66940397    -0.06000
C770        C  0.04252781  0.43039486  0.66062538     0.00000
C771        C  0.02235351  0.40301374  0.65871068    -0.08600
C772        C  0.98116355  0.40346045  0.65848171    -0.06000
C773        C  0.95965339  0.43010345  0.66197476    -0.00100
C774        C  0.98031335  0.45649723  0.67019072    -0.08500
C775        C  0.95962040  0.48585953  0.67679453     0.61900
H776        H  0.03751325  0.47660378  0.67216410     0.12500
H777        H  0.96566312  0.38292411  0.65382034     0.12600
C778        C  0.04310765  0.37324595  0.65542567     0.62100
F779        F  0.98560242  0.50777192  0.68618376    -0.23100
F780        F  0.93314695  0.48213560  0.70151812    -0.20400
F781        F  0.94028810  0.49582675  0.64914245    -0.20100
F782        F  0.08164256  0.37449836  0.66613122    -0.20100
F783        F  0.04215485  0.36457597  0.62345311    -0.20500
F784        F  0.02445785  0.35189684  0.67389808    -0.23100
C785        C  0.27113881  0.39238333  0.52759092    -0.06000
C786        C  0.23212711  0.40165757  0.52456397     0.00000
C787        C  0.20928126  0.39313624  0.49738309    -0.08600
C788        C  0.22588381  0.37359664  0.47514999    -0.06000
C789        C  0.26475140  0.36364344  0.47852100    -0.00100
C790        C  0.28831499  0.37377365  0.50483993    -0.08500
C791        C  0.33142330  0.36557212  0.50934852     0.61900
H792        H  0.28795608  0.39932871  0.54854577     0.12500
H793        H  0.20894256  0.36686576  0.45417320     0.12600
C794        C  0.16825696  0.40549313  0.49100470     0.62100
F795        F  0.34495966  0.37175639  0.54024067    -0.23100
F796        F  0.35383992  0.38161641  0.48782218    -0.20400
F797        F  0.33701687  0.33557414  0.50444438    -0.20100
F798        F  0.16754786  0.43580670  0.49665131    -0.20100
F799        F  0.14159258  0.39153458  0.51079820    -0.20500
F800        F  0.15639572  0.40114488  0.45928413    -0.23100
C801        C  0.21874788  0.03057666  0.26467263    -0.06000
C802        C  0.23907683  0.04433312  0.28999909     0.00000
C803        C  0.27936708  0.05208487  0.28512947    -0.08600
C804        C  0.29626002  0.04788065  0.25451458    -0.06000
C805        C  0.27486025  0.03640206  0.22864466    -0.00100
C806        C  0.23570433  0.02666877  0.23398048    -0.08500
C807        C  0.21160505  0.01203532  0.20747844     0.61900
H808        H  0.18876786  0.02397265  0.26872796     0.12500
H809        H  0.32585929  0.05517102  0.24996223     0.12600
C810        C  0.30525257  0.06496420  0.31166073     0.62100
F811        F  0.17653849  0.00105813  0.21892794    -0.23100
F812        F  0.23233602  0.98843399  0.19497267    -0.20400
F813        F  0.20293632  0.03230155  0.18308856    -0.20100
F814        F  0.30267405  0.04786935  0.33938555    -0.20100
F815        F  0.29396240  0.09395496  0.31790173    -0.20500
F816        F  0.34436332  0.06534145  0.30310272    -0.23100
C817        C  0.10214369  0.49989066  0.47856869    -0.06000
C818        C  0.11779355  0.02126735  0.47896894     0.00000
C819        C  0.13387136  0.03341217  0.50811875    -0.08600
C820        C  0.12846225  0.01859903  0.53768286    -0.06000
C821        C  0.11339452  0.49564267  0.53727699    -0.00100
C822        C  0.09404131  0.48581104  0.50858766    -0.08500
C823        C  0.06328277  0.46162364  0.50835705     0.61900
H824        H  0.08820191  0.49170315  0.45674037     0.12500
H825        H  0.14241288  0.02696537  0.55937762     0.12600
C826        C  0.15920804  0.06091294  0.50836572     0.62100
F827        F  0.02990237  0.47220076  0.49259758    -0.23100
F828        F  0.05242470  0.45286603  0.53904636    -0.20400
F829        F  0.07730292  0.43716348  0.49194495    -0.20100
F830        F  0.13645160  0.08539773  0.49993897    -0.20100
F831        F  0.17591833  0.06644991  0.53837506    -0.20500
F832        F  0.18943634  0.05700083  0.48695846    -0.23100
C833        C  0.27933065  0.43202044  0.41190366    -0.06000
C834        C  0.29767300  0.42270720  0.38340133     0.00000
C835        C  0.30544768  0.44428410  0.35903504    -0.08600
C836        C  0.29186529  0.47386673  0.36329556    -0.06000
C837        C  0.27074014  0.48239825  0.39077718    -0.00100
C838        C  0.26609989  0.46146229  0.41616890    -0.08500
C839        C  0.27262809  0.97681768  0.45379933     0.61900
H840        H  0.27418638  0.41562687  0.43073015     0.12500
H841        H  0.29536158  0.48990652  0.34382614     0.12600
C842        C  0.32604358  0.43743827  0.32767150     0.62100
F843        F  0.28868808  0.95826947  0.47746752    -0.23100
F844        F  0.23271655  0.97899287  0.45869818    -0.20400
F845        F  0.28919101  0.00466420  0.45715492    -0.20100
F846        F  0.30190056  0.44541681  0.30185968    -0.20100
F847        F  0.33590143  0.40775624  0.32453407    -0.20500
F848        F  0.36005013  0.45392082  0.32612039    -0.23100
C849        C  0.22289971  0.18168292  0.35179476    -0.06000
C850        C  0.19738230  0.17307690  0.37618654     0.00000
C851        C  0.18637465  0.19453998  0.39971719    -0.08600
C852        C  0.20513028  0.22266322  0.39994776    -0.06000
C853        C  0.23351638  0.23005626  0.37707387    -0.00100
C854        C  0.24011628  0.20996056  0.35118292    -0.08500
C855        C  0.26345834  0.21883685  0.32182025     0.61900
H856        H  0.23037376  0.16551111  0.33354395     0.12500
H857        H  0.19921741  0.23845754  0.41891948     0.12600
C858        C  0.15657611  0.18752652  0.42545767     0.62100
F859        F  0.25842271  0.19912789  0.29657476    -0.23100
F860        F  0.30301865  0.21989628  0.32923567    -0.20400
F861        F  0.25030009  0.24638031  0.31137770    -0.20100
F862        F  0.17088120  0.16532062  0.44554348    -0.20100
F863        F  0.12192381  0.17840487  0.41114612    -0.20500
F864        F  0.14834297  0.21205161  0.44431483    -0.23100
C865        C  0.23129655  0.19986675  0.72769764    -0.06000
C866        C  0.27270397  0.19996489  0.72581346     0.00000
C867        C  0.29510911  0.19914104  0.75466872    -0.08600
C868        C  0.27529810  0.19937636  0.78429111    -0.06000
C869        C  0.23392548  0.19920132  0.78622078    -0.00100
C870        C  0.21144599  0.19904376  0.75733396    -0.08500
C871        C  0.16700495  0.19712290  0.75756107     0.61900
H872        H  0.21425530  0.20053488  0.70544210     0.12500
H873        H  0.29239837  0.19960813  0.80650639     0.12600
C874        C  0.33948093  0.19673239  0.75437625     0.62100
F875        F  0.15153824  0.19271479  0.72689550    -0.23100
F876        F  0.15132591  0.22328319  0.76932306    -0.20400
F877        F  0.15556467  0.17349591  0.77685772    -0.20100
F878        F  0.35514740  0.22295002  0.74275919    -0.20100
F879        F  0.35078532  0.17338690  0.73489336    -0.20500
F880        F  0.35495350  0.19144534  0.78500053    -0.23100
C881        C  0.28347400  0.03804221  0.60595361    -0.06000
C882        C  0.25265525  0.03243407  0.62729923     0.00000
C883        C  0.24358778  0.05408928  0.65112318    -0.08600
C884        C  0.26374948  0.08124365  0.65105108    -0.06000
C885        C  0.29251813  0.08777558  0.62832367    -0.00100
C886        C  0.30332097  0.06561278  0.60570167    -0.08500
C887        C  0.33380385  0.07159567  0.58012430     0.61900
H888        H  0.29057871  0.02116234  0.58841578     0.12500
H889        H  0.25588259  0.09841674  0.66805529     0.12600
C890        C  0.21299224  0.04888389  0.67696909     0.62100
F891        F  0.33982580  0.04713562  0.56062735    -0.23100
F892        F  0.36919987  0.07854815  0.59470866    -0.20400
F893        F  0.32155269  0.09502725  0.56057317    -0.20100
F894        F  0.22030277  0.02202945  0.69246902    -0.20100
F895        F  0.17587645  0.04880151  0.66319341    -0.20500
F896        F  0.21356660  0.07085282  0.70024208    -0.23100
C897        C  0.23024255  0.33030405  0.65413086    -0.06000
C898        C  0.20448751  0.33810867  0.62880778     0.00000
C899        C  0.19353233  0.31602839  0.60600467    -0.08600
C900        C  0.21274788  0.28804396  0.60711912    -0.06000
C901        C  0.24104388  0.28127428  0.63094375    -0.00100
C902        C  0.24749327  0.30182231  0.65637678    -0.08500
C903        C  0.27135454  0.29353889  0.68642759     0.61900
H904        H  0.23742436  0.34700639  0.67193416     0.12500
H905        H  0.20690568  0.27164268  0.58869539     0.12600
C906        C  0.16278396  0.32214837  0.57996605     0.62100
F907        F  0.26578088  0.31383397  0.71097847    -0.23100
F908        F  0.31084700  0.29272080  0.67947575    -0.20400
F909        F  0.25982673  0.26597689  0.69783146    -0.20100
F910        F  0.17468304  0.34523621  0.56027339    -0.20100
F911        F  0.12760240  0.32959332  0.59415481    -0.20500
F912        F  0.15640570  0.29753903  0.56073807    -0.23100
C913        C  0.34511608  0.27180018  0.49428183    -0.06000
C914        C  0.37459046  0.26485178  0.47217201     0.00000
C915        C  0.40561665  0.24574973  0.48232732    -0.08600
C916        C  0.40622854  0.23470478  0.51467751    -0.06000
C917        C  0.37738908  0.24287119  0.53729582    -0.00100
C918        C  0.34607348  0.26164053  0.52658833    -0.08500
C919        C  0.31260354  0.26997051  0.54871884     0.61900
H920        H  0.32076369  0.28541640  0.48572545     0.12500
H921        H  0.42909077  0.21933710  0.52250192     0.12600
C922        C  0.43774104  0.23733064  0.45914385     0.62100
F923        F  0.32687993  0.28644120  0.57429057    -0.23100
F924        F  0.29500735  0.24445606  0.56026197    -0.20400
F925        F  0.28403726  0.28690420  0.53297860    -0.20100
F926        F  0.46474454  0.21790120  0.47324387    -0.20100
F927        F  0.45725530  0.26266710  0.44935749    -0.25300
F928        F  0.42159979  0.22364094  0.43235537    -0.23100
C929        C  0.21122643  0.13021412  0.49895368    -0.06000
C930        C  0.23778035  0.11800429  0.47684208     0.00000
C931        C  0.27794417  0.12535047  0.47889870    -0.08600
C932        C  0.28979936  0.14450787  0.50346505    -0.06000
C933        C  0.26349796  0.15501270  0.52673675    -0.00100
C934        C  0.22324013  0.14832269  0.52424962    -0.08500
C935        C  0.19300505  0.15923379  0.54829434     0.61900
H936        H  0.18047913  0.12567319  0.49619562     0.12500
H937        H  0.32046662  0.15025992  0.50578723     0.12600
C938        C  0.30835888  0.11328937  0.45574466     0.62100
F939        F  0.15557281  0.14953825  0.54075100    -0.23100
F940        F  0.19209178  0.19002171  0.54822949    -0.20400
F941        F  0.20232118  0.14872145  0.57897697    -0.20100
F942        F  0.31097818  0.08266076  0.45907999    -0.20100
F943        F  0.34525665  0.12476344  0.46178580    -0.20500
F944        F  0.29804364  0.12072253  0.42424994    -0.23100
C945        C  0.79459767  0.05046033  0.25724920    -0.06000
C946        C  0.77030533  0.04350610  0.28302401     0.00000
C947        C  0.72972584  0.03810994  0.27680043    -0.08600
C948        C  0.71485249  0.04089309  0.24494451    -0.06000
C949        C  0.73856622  0.04987655  0.21941694    -0.00100
C950        C  0.77962029  0.05421268  0.22554461    -0.08500
C951        C  0.80823750  0.06285500  0.19917872     0.61900
H952        H  0.82522175  0.05453663  0.26255053     0.12500
H953        H  0.68400991  0.03748996  0.23997208     0.12600
C954        C  0.70178333  0.02944132  0.30353454     0.62100
F955        F  0.84683509  0.06107312  0.20983666    -0.23100
F956        F  0.80133873  0.09186145  0.18906542    -0.20400
F957        F  0.80440695  0.04384961  0.17336723    -0.20100
F958        F  0.69616945  0.05309272  0.32413850    -0.20100
F959        F  0.71691673  0.00543608  0.32067376    -0.20500
F960        F  0.66541945  0.02131470  0.29144104    -0.23100
C961        C  0.76788769  0.16754205  0.35401371    -0.06000
C962        C  0.79565069  0.15994435  0.37782761     0.00000
C963        C  0.80933184  0.18235592  0.39919801    -0.08600
C964        C  0.79100332  0.21073938  0.39828146    -0.06000
C965        C  0.76064912  0.21741337  0.37612766    -0.00100
C966        C  0.75115368  0.19612621  0.35193308    -0.08500
C967        C  0.72393079  0.20321328  0.32346048     0.61900
H968        H  0.75849621  0.15045882  0.33734938     0.12500
H969        H  0.79912076  0.22749995  0.41571843     0.12600
C970        C  0.84192935  0.17613940  0.42364682     0.62100
F971        F  0.73277468  0.23082220  0.31060595    -0.23100
F972        F  0.72796916  0.18261437  0.29898369    -0.20400
F973        F  0.68532871  0.20290632  0.33320036    -0.20100
F974        F  0.87542616  0.16725756  0.40778710    -0.20100
F975        F  0.83068260  0.15397405  0.44487515    -0.20500
F976        F  0.85110874  0.20114627  0.44145510    -0.23100
C977        C  0.74304379  0.41605088  0.35736901    -0.06000
C978        C  0.70865009  0.41109229  0.37462461     0.00000
C979        C  0.69201958  0.43510972  0.39210303    -0.08600
C980        C  0.71293144  0.46223878  0.39420941    -0.06000
C981        C  0.74962576  0.46593654  0.37957162    -0.00100
C982        C  0.76401672  0.44269260  0.35945416    -0.08500
C983        C  0.80137657  0.44530442  0.33985749     0.61900
H984        H  0.75475293  0.39784731  0.34336502     0.12500
H985        H  0.69892200  0.97921863  0.41215651     0.12600
C986        C  0.65286595  0.43215236  0.40877713     0.62100
F987        F  0.80578340  0.42198720  0.31848412    -0.23100
F988        F  0.83384212  0.44502344  0.36019259    -0.20400
F989        F  0.80035754  0.47124868  0.32176966    -0.20100
F990        F  0.65463044  0.40971389  0.43180414    -0.20100
F991        F  0.62414174  0.42561822  0.38610907    -0.20500
F992        F  0.64205018  0.45818803  0.42406093    -0.23100
C993        C  0.90013903  0.02197254  0.49992928    -0.06000
C994        C  0.88696924  0.00482704  0.47339457     0.00000
C995        C  0.88950975  0.47333303  0.47659992    -0.08600
C996        C  0.88887230  0.46067639  0.50798174    -0.06000
C997        C  0.89186075  0.47782753  0.53639919    -0.00100
C998        C  0.89973602  0.01125746  0.53213572    -0.08500
C999        C  0.91292801  0.03131706  0.55946946     0.61900
H1000       H  0.90872543  0.04477402  0.49552973     0.12500
H1001       H  0.88371553  0.43705835  0.51036864     0.12600
C1002       C  0.88454911  0.45300940  0.44769645     0.62100
F1003       F  0.93097861  0.05675045  0.54801740    -0.23100
F1004       F  0.93950727  0.01626945  0.57928814    -0.20400
F1005       F  0.87488036  0.53309663  0.57884634    -0.20100
F1006       F  0.89303590  0.95212481  0.42936043    -0.20100
F1007       F  0.84918749  0.45900968  0.43228564    -0.20500
F1008       F  0.88476069  0.42321617  0.45658542    -0.23100
C1009       C  0.98004307  0.03788208  0.34714784    -0.06000
C1010       C  0.95897974  0.06399876  0.35417954     0.00000
C1011       C  0.97950665  0.09126605  0.35563172    -0.08600
C1012       C  0.02081356  0.09067724  0.35537041    -0.06000
C1013       C  0.04242107  0.06389447  0.35282528    -0.00100
C1014       C  0.02147272  0.03725762  0.34629043    -0.08500
C1015       C  0.04224464  0.00781048  0.34052762     0.61900
H1016       H  0.96394017  0.01730261  0.34507508     0.12500
H1017       H  0.03648932  0.11125014  0.35925982     0.12600
C1018       C  0.95848025  0.12092561  0.35933247     0.62100
F1019       F  0.01618186  0.98536305  0.33299245    -0.23100
F1020       F  0.06297093  0.99911063  0.36800072    -0.20400
F1021       F  0.06755609  0.01080971  0.31486866    -0.20100
F1022       F  0.95166309  0.12613935  0.39166965    -0.20100
F1023       F  0.92316044  0.12107258  0.34249456    -0.20500
F1024       F  0.98077364  0.14400135  0.34721989    -0.23100
C1025       C  0.79624794  0.20566098  0.75934475    -0.06000
C1026       C  0.77192296  0.21452723  0.78447668     0.00000
C1027       C  0.73142331  0.22026542  0.77751474    -0.08600
C1028       C  0.71674666  0.21549603  0.74602053    -0.06000
C1029       C  0.74058271  0.20514359  0.72118720    -0.00100
C1030       C  0.78160525  0.20079356  0.72780565    -0.08500
C1031       C  0.81057727  0.19131175  0.70210785     0.61900
H1032       H  0.82689390  0.20147041  0.76497937     0.12500
H1033       H  0.68590047  0.21912598  0.74074024     0.12600
C1034       C  0.70327412  0.23169134  0.80284517     0.62100
F1035       F  0.84909190  0.19349449  0.71277857    -0.23100
F1036       F  0.80647040  0.20935727  0.67511942    -0.20400
F1037       F  0.80417922  0.16201405  0.69372511    -0.20100
F1038       F  0.71990161  0.25516375  0.81924230    -0.20100
F1039       F  0.69441135  0.20909847  0.82438384    -0.20500
F1040       F  0.66839263  0.24187060  0.78913220    -0.23100
C1041       C  0.60079950  0.26707418  0.49242346    -0.06000
C1042       C  0.62268563  0.25427945  0.46721979     0.00000
C1043       C  0.64424239  0.22771372  0.47399749    -0.08600
C1044       C  0.64337498  0.21544246  0.50541118    -0.06000
C1045       C  0.62314789  0.22895146  0.53099729    -0.00100
C1046       C  0.60082692  0.25503911  0.52422902    -0.08500
C1047       C  0.57700896  0.27003694  0.55020169     0.61900
H1048       H  0.58475158  0.28749873  0.48727969     0.12500
H1049       H  0.66058507  0.19559456  0.51067947     0.12600
C1050       C  0.67098089  0.21356703  0.44927623     0.62100
F1051       F  0.55357563  0.29272903  0.53764157    -0.23100
F1052       F  0.60179990  0.28216913  0.57312776    -0.20400
F1053       F  0.55292487  0.24941603  0.56481605    -0.20100
F1054       F  0.69868422  0.23405298  0.43991372    -0.20100
F1055       F  0.64931853  0.20449944  0.42272661    -0.20500
F1056       F  0.69081886  0.18884568  0.46152810    -0.23100
C1057       C  0.79892941  0.27405163  0.63086643    -0.06000
C1058       C  0.76493331  0.27075976  0.61150846     0.00000
C1059       C  0.74863232  0.29641230  0.59609102    -0.08600
C1060       C  0.76406444  0.32431587  0.60348098    -0.06000
C1061       C  0.79599865  0.32815848  0.62486902    -0.00100
C1062       C  0.81469917  0.30242651  0.63815380    -0.08500
C1063       C  0.84891198  0.30493233  0.66165763     0.61900
H1064       H  0.81150266  0.25432975  0.64222894     0.12500
H1065       H  0.75008052  0.34382013  0.59265970     0.12600
C1066       C  0.71252544  0.29537467  0.57419123     0.62100
F1067       F  0.86071793  0.27735867  0.67363925    -0.23100
F1068       F  0.83813276  0.32238318  0.68749292    -0.20400
F1069       F  0.88052896  0.31767486  0.64640759    -0.20100
F1070       F  0.67922985  0.29721339  0.59278114    -0.20100
F1071       F  0.71185640  0.26942773  0.55642850    -0.20500
F1072       F  0.71176521  0.31899650  0.55252323    -0.23100
C1073       C  0.69231811  0.06286177  0.60775509    -0.06000
C1074       C  0.70135746  0.07968980  0.63536492     0.00000
C1075       C  0.72335522  0.06658004  0.66080367    -0.08600
C1076       C  0.73949561  0.03810754  0.65623878    -0.06000
C1077       C  0.73434551  0.02246379  0.62707494    -0.00100
C1078       C  0.70820514  0.03408970  0.60324605    -0.08500
C1079       C  0.75140709  0.53190762  0.56010356     0.61900
H1080       H  0.67483636  0.07328731  0.58869609     0.12500
H1081       H  0.75792433  0.02832339  0.67509939     0.12600
C1082       C  0.72978350  0.08278760  0.69242396     0.62100
F1083       F  0.67296436  0.03264449  0.55264385    -0.23100
F1084       F  0.73194986  0.50627568  0.55126997    -0.20400
F1085       F  0.79134588  0.52657502  0.55983167    -0.20100
F1086       F  0.69398967  0.09180783  0.70443504    -0.20100
F1087       F  0.75292339  0.10749890  0.68754157    -0.20500
F1088       F  0.74801032  0.06474454  0.71547244    -0.23100
C1089       C  0.52500724  0.15732194  0.65539599    -0.06000
C1090       C  0.54525371  0.18450813  0.65624878     0.00000
C1091       C  0.52353988  0.21119468  0.66111217    -0.08600
C1092       C  0.48223208  0.20988741  0.66119073    -0.06000
C1093       C  0.46201664  0.18312289  0.65605219    -0.00100
C1094       C  0.48376248  0.15608527  0.65561488    -0.08500
C1095       C  0.46407388  0.12596735  0.65356570     0.61900
H1096       H  0.54168506  0.13692774  0.65238116     0.12500
H1097       H  0.46538342  0.23035172  0.66236088     0.12600
C1098       C  0.54334365  0.24129380  0.66369363     0.62100
F1099       F  0.48869520  0.10351800  0.66505296    -0.23100
F1100       F  0.45437922  0.11992974  0.62175980    -0.20400
F1101       F  0.43055632  0.12560198  0.67205601    -0.20100
F1102       F  0.56359325  0.24741488  0.63569215    -0.20100
F1103       F  0.56900939  0.24109336  0.68982852    -0.20500
F1104       F  0.51660340  0.26417475  0.66815461    -0.23100
C1105       C  0.70963767  0.12341892  0.50642252    -0.06000
C1106       C  0.73616775  0.13087897  0.53127669     0.00000
C1107       C  0.77450606  0.11872625  0.53170771    -0.08600
C1108       C  0.78531590  0.10018281  0.50636949    -0.06000
C1109       C  0.75954515  0.09404230  0.48062850    -0.00100
C1110       C  0.72061492  0.10506451  0.48085914    -0.08500
C1111       C  0.69116964  0.09831962  0.45407485     0.61900
H1112       H  0.68005004  0.13230640  0.50719663     0.12500
H1113       H  0.81489589  0.09126222  0.50563817     0.12600
C1114       C  0.80385989  0.12492477  0.55868606     0.62100
F1115       F  0.65514416  0.11171520  0.45930914    -0.23100
F1116       F  0.68537358  0.06791849  0.45247710    -0.20400
F1117       F  0.70484448  0.10864433  0.42475805    -0.20100
F1118       F  0.83859528  0.10928169  0.55485949    -0.20100
F1119       F  0.78839884  0.11664542  0.58811338    -0.20500
F1120       F  0.81266339  0.15491768  0.55894545    -0.23100
Fe1121     Fe  0.65848465  0.72044053  0.63550235     1.65800
Fe1122     Fe  0.64818142  0.65281720  0.60081461     1.73200
Fe1123     Fe  0.73759351  0.67573771  0.62491022     1.54400
O1124       O  0.75487469  0.72066295  0.62085482    -0.81900
O1125       O  0.66655903  0.61997364  0.63299084    -0.80200
O1126       O  0.69973279  0.74614111  0.61455124    -0.84400
O1127       O  0.69215911  0.71849055  0.67894380    -0.79200
O1128       O  0.74242467  0.66972668  0.57564354    -0.81000
O1129       O  0.59932734  0.66174941  0.62813046    -0.83700
C1130       C  0.72019007  0.70205936  0.69025605     0.97000
C1131       C  0.73654457  0.74509280  0.61580041     1.04500
O1132       O  0.68123566  0.68302730  0.62095042    -1.12700
O1133       O  0.63070593  0.68292465  0.56622552    -0.75200
O1134       O  0.62655877  0.72655429  0.59146365    -0.78600
O1135       O  0.73516121  0.68103494  0.67390659    -0.79300
C1136       C  0.62442024  0.71079570  0.56580873     0.95900
O1137       O  0.61253479  0.70036616  0.65899327    -0.77300
O1138       O  0.69119438  0.63978157  0.56963801    -0.82500
C1139       C  0.70211733  0.61130835  0.63293666     0.98500
C1140       C  0.72407735  0.64948660  0.56049571     1.04500
O1141       O  0.73024715  0.62958186  0.62968080    -0.78100
C1142       C  0.58959688  0.68009170  0.64978210     1.02800
Fe1143     Fe  0.85222658  0.52043356  0.37079136     1.65800
Fe1144     Fe  0.86131333  0.58350315  0.41461609     1.73200
Fe1145     Fe  0.77241042  0.56396613  0.38556897     1.54400
O1146       O  0.77512478  0.56234946  0.33651132    -0.81900
O1147       O  0.81701039  0.59439675  0.44526501    -0.80200
O1148       O  0.82159297  0.52814237  0.32643604    -0.84400
O1149       O  0.80867100  0.49256543  0.38529061    -0.79200
O1150       O  0.78143269  0.61005471  0.38366605    -0.81000
O1151       O  0.87679487  0.54964448  0.44580565    -0.83700
C1152       C  0.77183168  0.49432014  0.38406446     0.97000
C1153       C  0.79182149  0.54420213  0.31776796     1.04500
O1154       O  0.82881222  0.55594784  0.38966586    -1.12700
O1155       O  0.91190892  0.57749443  0.38853606    -0.75200
O1156       O  0.90110455  0.54201070  0.35282511    -0.78600
O1157       O  0.75409658  0.51931243  0.38518378    -0.79300
C1158       C  0.92294558  0.56175778  0.36508437     0.95900
O1159       O  0.88119236  0.50932544  0.41498444    -0.77300
O1160       O  0.84545121  0.61944205  0.38585037    -0.82500
C1161       C  0.78339405  0.58484559  0.45237206     0.98500
C1162       C  0.81011397  0.62813548  0.38221119     1.04500
O1163       O  0.76543730  0.56615923  0.43492636    -0.78100
C1164       C  0.88391928  0.52202545  0.44256008     1.02800
Fe1165     Fe  0.35378292  0.72654120  0.64058037     1.65800
Fe1166     Fe  0.36445486  0.66434152  0.59460058     1.73200
Fe1167     Fe  0.27431074  0.68525452  0.62063156     1.54400
O1168       O  0.27618591  0.68599113  0.66999027    -0.81900
O1169       O  0.32278909  0.65854061  0.56029179    -0.80200
O1170       O  0.32741187  0.71438004  0.68473353    -0.84400
O1171       O  0.30824007  0.75534774  0.63263264    -0.79200
O1172       O  0.28111413  0.63904110  0.62111770    -0.81000
O1173       O  0.38497235  0.69931359  0.56666435    -0.83700
C1174       C  0.27185220  0.75396937  0.62797778     0.97000
C1175       C  0.29600900  0.69989578  0.69128949     1.04500
O1176       O  0.33101651  0.69184261  0.61938798    -1.12700
O1177       O  0.41212651  0.66529620  0.62527076    -0.75200
O1178       O  0.40561766  0.70569969  0.65460034    -0.78600
O1179       O  0.25537008  0.72964141  0.62092883    -0.79300
C1180       C  0.42495989  0.68290524  0.64639172     0.95900
O1181       O  0.37620747  0.74076698  0.59558715    -0.77300
O1182       O  0.34417387  0.62636005  0.61788113    -0.82500
C1183       C  0.28915668  0.66832725  0.55269272     0.98500
C1184       C  0.30826303  0.61943500  0.62086606     1.04500
O1185       O  0.26961887  0.68496995  0.57115057    -0.78100
C1186       C  0.38379301  0.72753128  0.56896541     1.02800
Fe1187     Fe  0.16478271  0.53062078  0.37245546     1.65800
Fe1188     Fe  0.15045568  0.59789278  0.40747204     1.73200
Fe1189     Fe  0.23935198  0.57940335  0.37948752     1.54400
O1190       O  0.26157670  0.53535492  0.38269841    -0.81900
O1191       O  0.16207822  0.63259760  0.37553402    -0.80200
O1192       O  0.21025531  0.50717430  0.39265477    -0.84400
O1193       O  0.19633087  0.53342205  0.32769226    -0.79200
O1194       O  0.24840948  0.58538611  0.42810362    -0.81000
O1195       O  0.09983854  0.58619169  0.38286678    -0.83700
C1196       C  0.22203458  0.55147155  0.31605304     0.97000
C1197       C  0.24661228  0.51017984  0.38923424     1.04500
O1198       O  0.18447340  0.56934151  0.38573676    -1.12700
O1199       O  0.13934179  0.56694174  0.44282839    -0.75200
O1200       O  0.13638725  0.52339035  0.41775025    -0.78600
O1201       O  0.23269652  0.57453162  0.33102009    -0.79300
C1202       C  0.13429329  0.53905174  0.44356928     0.95900
O1203       O  0.11445843  0.54852559  0.35081000    -0.77300
O1204       O  0.19525474  0.61296122  0.43548302    -0.82500
C1205       C  0.19684931  0.64246134  0.37281760     0.98500
C1206       C  0.22973187  0.60513192  0.44345845     1.04500
O1207       O  0.22654061  0.62498694  0.37482039    -0.78100
C1208       C  0.08995579  0.56714100  0.36186805     1.02800
Fe1209     Fe  0.15126752  0.97602952  0.64071540     1.65800
Fe1210     Fe  0.14243195  0.91281964  0.59657881     1.73200
Fe1211     Fe  0.23193944  0.93454192  0.62337254     1.54400
O1212       O  0.24858187  0.97933154  0.62220817    -0.81900
O1213       O  0.16141820  0.87720312  0.62467964    -0.80200
O1214       O  0.19362919  0.00535440  0.62666369    -0.84400
O1215       O  0.18205278  0.96797968  0.68460041    -0.79200
O1216       O  0.23642495  0.93211322  0.57365474    -0.81000
O1217       O  0.09316096  0.91759204  0.62416447    -0.83700
C1218       C  0.21250288  0.95259280  0.69280354     0.97000
C1219       C  0.23046628  0.00399113  0.62481987     1.04500
O1220       O  0.17513026  0.94119991  0.62074870    -1.12700
O1221       O  0.12335512  0.94603266  0.56593730    -0.75200
O1222       O  0.12126489  0.98662871  0.59695412    -0.78600
O1223       O  0.23163189  0.93682360  0.67293097    -0.79300
C1224       C  0.11653393  0.97354903  0.56966436     0.95900
O1225       O  0.10418589  0.95339511  0.65931068    -0.77300
O1226       O  0.18520093  0.90325212  0.56416575    -0.82500
C1227       C  0.19723725  0.86957862  0.62794775     0.98500
C1228       C  0.21770999  0.91392025  0.55600039     1.04500
O1229       O  0.22496392  0.88841454  0.62606751    -0.78100
C1230       C  0.08274264  0.93309909  0.64792968     1.02800
Fe1231     Fe  0.34675300  0.78213800  0.37056932     1.65800
Fe1232     Fe  0.36292953  0.84624735  0.41148047     1.73200
Fe1233     Fe  0.27181828  0.82997950  0.38468426     1.54400
O1234       O  0.27483990  0.82965436  0.33538958    -0.81900
O1235       O  0.32073416  0.85892572  0.44307551    -0.80200
O1236       O  0.31523440  0.79116437  0.32640261    -0.84400
O1237       O  0.30147027  0.75704286  0.38742104    -0.79200
O1238       O  0.28327477  0.87582547  0.38500281    -0.81000
O1239       O  0.37758427  0.81257826  0.44327115    -0.83700
C1240       C  0.26531035  0.75996413  0.38199356     0.97000
C1241       C  0.28801807  0.80957443  0.31697928     1.04500
O1242       O  0.32750530  0.81948593  0.38825648    -1.12700
O1243       O  0.41142738  0.83739429  0.38397591    -0.75200
O1244       O  0.39704250  0.80023547  0.35114474    -0.78600
O1245       O  0.24938310  0.78576794  0.38162622    -0.79300
C1246       C  0.42069842  0.81953892  0.36184066     0.95900
O1247       O  0.37568701  0.77034675  0.41490350    -0.77300
O1248       O  0.34776284  0.88270610  0.38274793    -0.82500
C1249       C  0.28726381  0.85018797  0.45147330     0.98500
C1250       C  0.31282543  0.89290078  0.38276019     1.04500
O1251       O  0.26728222  0.83181297  0.43465880    -0.78100
C1252       C  0.38070568  0.78446333  0.44148953     1.02800
Fe1253     Fe  0.84396734  0.97307343  0.63859800     1.65800
Fe1254     Fe  0.86091886  0.90773202  0.60194110     1.73200
Fe1255     Fe  0.76729340  0.92861552  0.62052848     1.54400
O1256       O  0.76642793  0.93785317  0.66949652    -0.81900
O1257       O  0.82580461  0.90078034  0.56288842    -0.80200
O1258       O  0.82256194  0.96093168  0.68395034    -0.84400
O1259       O  0.79453136  0.99815734  0.63341071    -0.79200
O1260       O  0.77449081  0.88344575  0.62912119    -0.81000
O1261       O  0.88755966  0.94191308  0.57590444    -0.83700
C1262       C  0.76010727  0.99595424  0.62264401     0.97000
C1263       C  0.78879538  0.95003333  0.69058365     1.04500
O1264       O  0.82370028  0.93610001  0.62067732    -1.12700
O1265       O  0.90083690  0.90965730  0.63951725    -0.75200
O1266       O  0.89961504  0.95746940  0.64899269    -0.78600
O1267       O  0.74785950  0.97192834  0.61058803    -0.79300
C1268       C  0.91726814  0.93277816  0.65000911     0.95900
O1269       O  0.86168004  0.98513340  0.59220978    -0.77300
O1270       O  0.83699824  0.87017856  0.62318593    -0.82500
C1271       C  0.79037902  0.90509854  0.55473655     0.98500
C1272       C  0.80121277  0.86368981  0.62714355     1.04500
O1273       O  0.76560337  0.91894892  0.57187280    -0.78100
C1274       C  0.87914679  0.96937164  0.57109083     1.02800
Fe1275     Fe  0.65954248  0.77178872  0.36804995     1.65800
Fe1276     Fe  0.64832347  0.83267660  0.41508655     1.73200
Fe1277     Fe  0.73789539  0.81481386  0.38627431     1.54400
O1278       O  0.75827185  0.77048004  0.38586880    -0.81900
O1279       O  0.66148581  0.86932580  0.38687675    -0.80200
O1280       O  0.70462188  0.74369911  0.37967088    -0.84400
O1281       O  0.68747917  0.78253425  0.32393791    -0.79200
O1282       O  0.74504832  0.81650553  0.43547713    -0.81000
O1283       O  0.59686022  0.82605050  0.38942570    -0.83700
C1284       C  0.71698768  0.79881411  0.31666868     0.97000
C1285       C  0.74133814  0.74564053  0.38169348     1.04500
O1286       O  0.68183921  0.80633148  0.38927538    -1.12700
O1287       O  0.63557716  0.79772781  0.44544360    -0.75200
O1288       O  0.63339248  0.75843765  0.41233139    -0.78600
O1289       O  0.73561133  0.81409080  0.33728582    -0.79300
C1290       C  0.63024895  0.77013632  0.44049230     0.95900
O1291       O  0.60971405  0.79343769  0.35133893    -0.77300
O1292       O  0.69314664  0.84471975  0.44539110    -0.82500
C1293       C  0.69649398  0.87820309  0.38306171     0.98500
C1294       C  0.72786494  0.83634475  0.45168086     1.04500
O1295       O  0.72593351  0.86043971  0.38469449    -0.78100
C1296       C  0.58646255  0.81108338  0.36509326     1.02800
Fe1297     Fe  0.85002208  0.73866867  0.86804014     1.65800
Fe1298     Fe  0.86421297  0.67680675  0.91284145     1.73200
Fe1299     Fe  0.77220051  0.69717364  0.88708706     1.54400
O1300       O  0.75766983  0.74054896  0.90002915    -0.81900
O1301       O  0.83528496  0.63821170  0.89844738    -0.80200
O1302       O  0.80019372  0.76462511  0.87021456    -0.84400
O1303       O  0.83001941  0.72391470  0.82302686    -0.79200
O1304       O  0.76910993  0.68414459  0.93481701    -0.81000
O1305       O  0.90292129  0.67268187  0.87503437    -0.83700
C1306       C  0.79465982  0.71609436  0.81661375     0.97000
C1307       C  0.76840117  0.76401884  0.88553716     1.04500
O1308       O  0.82856618  0.70350011  0.88879327    -1.12700
O1309       O  0.89522633  0.71236157  0.93246345    -0.75200
O1310       O  0.86594097  0.75354037  0.91386541    -0.78600
O1311       O  0.77031902  0.70876623  0.83842892    -0.79300
C1312       C  0.88382125  0.73917451  0.93639821     0.95900
O1313       O  0.90537269  0.72001881  0.86159064    -0.77300
O1314       O  0.83063524  0.67806893  0.95278785    -0.82500
C1315       C  0.80260196  0.63255657  0.88461040     0.98500
C1316       C  0.79402149  0.67735544  0.95672567     1.04500
O1317       O  0.77906250  0.65293138  0.87493155    -0.78100
C1318       C  0.92134058  0.69449235  0.86309659     1.02800
Fe1319     Fe  0.66632630  0.53501511  0.13141134     1.65800
Fe1320     Fe  0.65280448  0.60360617  0.09813580     1.73200
Fe1321     Fe  0.74166396  0.58365478  0.12691084     1.54400
O1322       O  0.73637021  0.57625813  0.17505511    -0.81900
O1323       O  0.69751405  0.61985796  0.07056622    -0.80200
O1324       O  0.69822958  0.53577675  0.17638940    -0.84400
O1325       O  0.71173433  0.51258432  0.11058610    -0.79200
O1326       O  0.72919508  0.62878011  0.13304242    -0.81000
O1327       O  0.64083747  0.57447729  0.06186349    -0.83700
C1328       C  0.74797998  0.51529660  0.11588762     0.97000
C1329       C  0.72444558  0.55286366  0.18899479     1.04500
O1330       O  0.68656709  0.57406042  0.11958734    -1.12700
O1331       O  0.60282838  0.59127893  0.12222968    -0.75200
O1332       O  0.61593297  0.55203451  0.15327972    -0.78600
O1333       O  0.76331072  0.54016355  0.12263709    -0.79300
C1334       C  0.59245394  0.57238073  0.14324988     0.95900
O1335       O  0.63718318  0.53009958  0.08602794    -0.77300
O1336       O  0.66472095  0.63595629  0.13193413    -0.82500
C1337       C  0.73221870  0.61218086  0.06361355     0.98500
C1338       C  0.69930472  0.64580116  0.13554101     1.04500
O1339       O  0.75008427  0.59157889  0.07890364    -0.78100
C1340       C  0.63526436  0.54671491  0.06063191     1.02800
Fe1341     Fe  0.16313135  0.72215193  0.86845298     1.65800
Fe1342     Fe  0.14891638  0.65837643  0.91220391     1.73200
Fe1343     Fe  0.24052302  0.67633466  0.88621270     1.54400
O1344       O  0.23962850  0.68150249  0.83705362    -0.81900
O1345       O  0.19081834  0.64681331  0.94527048    -0.80200
O1346       O  0.18902280  0.71185945  0.82381148    -0.84400
O1347       O  0.21055156  0.74837585  0.87804134    -0.79200
O1348       O  0.22925246  0.63082138  0.88171723    -0.81000
O1349       O  0.13227665  0.69241982  0.94208339    -0.83700
C1350       C  0.24681616  0.74535379  0.88366805     0.97000
C1351       C  0.22014718  0.69715506  0.81663145     1.04500
O1352       O  0.18410131  0.68557816  0.88838631    -1.12700
O1353       O  0.09953652  0.66461378  0.88387100    -0.75200
O1354       O  0.11043973  0.70399764  0.85314329    -0.78600
O1355       O  0.26203774  0.71999009  0.88978215    -0.79300
C1356       C  0.08838889  0.68315302  0.86253111     0.95900
O1357       O  0.14004083  0.73477418  0.91363064    -0.77300
O1358       O  0.16520055  0.62162752  0.88553124    -0.82500
C1359       C  0.22544489  0.65388496  0.95255573     0.98500
C1360       C  0.20030721  0.61300149  0.88082394     1.04500
O1361       O  0.24630721  0.67084040  0.93538675    -0.78100
C1362       C  0.13216828  0.72064352  0.93987079     1.02800
Fe1363     Fe  0.35577314  0.51952145  0.13835981     1.65800
Fe1364     Fe  0.36099752  0.58417330  0.09556006     1.73200
Fe1365     Fe  0.27317743  0.55982504  0.12106794     1.54400
O1366       O  0.25813152  0.51518735  0.11919418    -0.81900
O1367       O  0.34173273  0.61849338  0.12462261    -0.80200
O1368       O  0.31384864  0.49002853  0.12375502    -0.84400
O1369       O  0.32493927  0.52580676  0.18235365    -0.79200
O1370       O  0.26747796  0.56324405  0.07183681    -0.81000
O1371       O  0.41209219  0.57901969  0.12228804    -0.83700
C1372       C  0.29330569  0.53992628  0.18982164     0.97000
C1373       C  0.27699966  0.49084586  0.12142802     1.04500
O1374       O  0.33016643  0.55448359  0.11908172    -1.12700
O1375       O  0.37899752  0.55192201  0.06404402    -0.75200
O1376       O  0.38443989  0.51052763  0.09409620    -0.78600
O1377       O  0.27432049  0.55645011  0.17008727    -0.79300
C1378       C  0.38703167  0.52429996  0.06684972     0.95900
O1379       O  0.40406293  0.54210707  0.15697291    -0.77300
O1380       O  0.31645178  0.59474627  0.06421096    -0.82500
C1381       C  0.30546082  0.62502796  0.12729008     0.98500
C1382       C  0.28385666  0.58384887  0.05613264     1.04500
O1383       O  0.27867606  0.60569795  0.12412704    -0.78100
C1384       C  0.42506424  0.56242707  0.14493942     1.02800
Fe1385     Fe  0.34393942  0.97388452  0.87517349     1.65800
Fe1386     Fe  0.36136949  0.90739179  0.91224539     1.73200
Fe1387     Fe  0.26970928  0.92578704  0.88710188     1.54400
O1388       O  0.24769979  0.96967651  0.88792460    -0.81900
O1389       O  0.34609310  0.87292534  0.88165391    -0.80200
O1390       O  0.29968267  0.99779623  0.89568000    -0.84400
O1391       O  0.31047617  0.96928750  0.83158211    -0.79200
O1392       O  0.26593908  0.92137031  0.93636786    -0.81000
O1393       O  0.40958594  0.91830389  0.88437982    -0.83700
C1394       C  0.28464567  0.95087302  0.82097133     0.97000
C1395       C  0.26328917  0.99508750  0.89109595     1.04500
O1396       O  0.32532336  0.93563946  0.89079616    -1.12700
O1397       O  0.37699813  0.93863742  0.94582450    -0.75200
O1398       O  0.37607038  0.98162969  0.91872582    -0.78600
O1399       O  0.27122801  0.92979919  0.83815386    -0.79300
C1400       C  0.38237291  0.96656816  0.94481012     0.95900
O1401       O  0.39211587  0.95597820  0.85236493    -0.77300
O1402       O  0.31920540  0.89300842  0.94355773    -0.82500
C1403       C  0.31116227  0.86323147  0.87938741     0.98500
C1404       C  0.28566117  0.90191136  0.95218591     1.04500
O1405       O  0.28141592  0.88008431  0.88353807    -0.78100
C1406       C  0.41740001  0.93719180  0.86236196     1.02800
Fe1407     Fe  0.15453904  0.77081285  0.13915872     1.65800
Fe1408     Fe  0.14343858  0.83445421  0.09431664     1.73200
Fe1409     Fe  0.23378772  0.81049553  0.11684247     1.54400
O1410       O  0.23705618  0.80709433  0.16628154    -0.81900
O1411       O  0.18439033  0.84463272  0.06057720    -0.80200
O1412       O  0.18372966  0.78221733  0.18311374    -0.84400
O1413       O  0.19907646  0.74164813  0.12999347    -0.79200
O1414       O  0.22704297  0.85633535  0.12038625    -0.81000
O1415       O  0.12444505  0.80101314  0.06483437    -0.83700
C1416       C  0.23437353  0.74216025  0.12143102     0.97000
C1417       C  0.21698147  0.79498943  0.18845423     1.04500
O1418       O  0.17703744  0.80533331  0.11770093    -1.12700
O1419       O  0.09479662  0.83087170  0.12243138    -0.75200
O1420       O  0.10340079  0.79169912  0.15407676    -0.78600
O1421       O  0.25070744  0.76620293  0.11343634    -0.79300
C1422       C  0.08247285  0.81315139  0.14368950     0.95900
O1423       O  0.12967331  0.75837986  0.09391536    -0.77300
O1424       O  0.16375242  0.86915644  0.12188332    -0.82500
C1425       C  0.21555300  0.83264646  0.05091926     0.98500
C1426       C  0.19991152  0.87565714  0.12402356     1.04500
O1427       O  0.23397135  0.81306322  0.06731925    -0.78100
C1428       C  0.12382947  0.77276191  0.06719264     1.02800
Fe1429     Fe  0.65431317  0.98627001  0.86469461     1.65800
Fe1430     Fe  0.64186149  0.92485534  0.91265715     1.73200
Fe1431     Fe  0.73339587  0.94449095  0.88887101     1.54400
O1432       O  0.73535744  0.94796057  0.83953434    -0.81900
O1433       O  0.68204638  0.91571820  0.94785701    -0.80200
O1434       O  0.68298454  0.97392505  0.82193684    -0.84400
O1435       O  0.69971065  0.01476256  0.87483090    -0.79200
O1436       O  0.72499555  0.89866857  0.88484762    -0.81000
O1437       O  0.62241740  0.96000885  0.93958457    -0.83700
C1438       C  0.73497294  0.01354597  0.88456365     0.97000
C1439       C  0.71538765  0.96014921  0.81681062     1.04500
O1440       O  0.67647017  0.95180838  0.88826973    -1.12700
O1441       O  0.59427730  0.92798906  0.88246359    -0.75200
O1442       O  0.60320074  0.96553453  0.84873167    -0.78600
O1443       O  0.75095557  0.98898169  0.89286634    -0.79300
C1444       C  0.58261777  0.94430399  0.85936072     0.95900
O1445       O  0.62790912  0.00051896  0.90772342    -0.77300
O1446       O  0.66120924  0.88776975  0.88848954    -0.82500
C1447       C  0.71600602  0.92375576  0.95590804     0.98500
C1448       C  0.69674531  0.88022015  0.88410674     1.04500
O1449       O  0.73696248  0.94033943  0.93838361    -0.78100
C1450       C  0.62028207  0.98796538  0.93493699     1.02800
Fe1451     Fe  0.84387540  0.78689254  0.13584849     1.65800
Fe1452     Fe  0.85398184  0.85152315  0.09473609     1.73200
Fe1453     Fe  0.76609350  0.83318118  0.12559582     1.54400
O1454       O  0.74648591  0.78879901  0.13033739    -0.81900
O1455       O  0.83949698  0.88682542  0.12398124    -0.80200
O1456       O  0.79842348  0.76171908  0.11902782    -0.84400
O1457       O  0.81491083  0.79356882  0.18026807    -0.79200
O1458       O  0.75622052  0.83415445  0.07643552    -0.81000
O1459       O  0.90517477  0.84386277  0.12111766    -0.83700
C1460       C  0.78927146  0.81186445  0.19127595     0.97000
C1461       C  0.76316192  0.76357328  0.12738731     1.04500
O1462       O  0.82170505  0.82388530  0.11922126    -1.12700
O1463       O  0.86870623  0.81905511  0.06272117    -0.75200
O1464       O  0.87168624  0.77709964  0.09156469    -0.78600
O1465       O  0.77429517  0.83289468  0.17437023    -0.79300
C1466       C  0.87502865  0.79124343  0.06472302     0.95900
O1467       O  0.89348482  0.80649926  0.15487260    -0.77300
O1468       O  0.80812078  0.86212232  0.06418316    -0.82500
C1469       C  0.80448519  0.89651187  0.12504720     0.98500
C1470       C  0.77431489  0.85194870  0.05782566     1.04500
O1471       O  0.77517304  0.87918288  0.12367837    -0.78100
C1472       C  0.91614993  0.82610467  0.14348072     1.02800
C1473       C  0.76441672  0.88994188  0.97829699    -0.06000
C1474       C  0.73276588  0.90902491  0.98437780     0.00000
C1475       C  0.71146413  0.90593428  0.01338541    -0.08600
C1476       C  0.72296577  0.88370282  0.03551681    -0.06000
C1477       C  0.75489580  0.86491045  0.02949001    -0.00100
C1478       C  0.77490144  0.86711948  0.99988976    -0.08500
C1479       C  0.80652901  0.84537878  0.98969730     0.61900
H1480       H  0.77913559  0.89130143  0.95524163     0.12500
H1481       H  0.70850888  0.88232620  0.05867087     0.12600
C1482       C  0.67706137  0.92566581  0.02242651     0.62100
F1483       F  0.79732084  0.83449111  0.95937351    -0.23100
F1484       F  0.81008784  0.82129268  0.01056445    -0.20400
F1485       F  0.84206794  0.85988765  0.98825719    -0.20100
F1486       F  0.64331269  0.90881630  0.02280057    -0.20100
F1487       F  0.67148756  0.94947582  0.00143692    -0.20500
F1488       F  0.68340468  0.93702861  0.05299341    -0.23100
C1489       C  0.02418594  0.84573643  0.15197989    -0.06000
C1490       C  0.04093948  0.81699323  0.15423459     0.00000
C1491       C  0.01587773  0.79244450  0.16033101    -0.08600
C1492       C  0.97504706  0.79733586  0.16039873    -0.06000
C1493       C  0.95829079  0.82543246  0.15366857    -0.00100
C1494       C  0.98326854  0.85045814  0.15173722    -0.08500
C1495       C  0.96722995  0.88195763  0.14839436     0.61900
H1496       H  0.04338568  0.86453327  0.14815618     0.12500
H1497       H  0.95569336  0.77845577  0.16270974     0.12600
C1498       C  0.03136586  0.76075847  0.16404991     0.62100
F1499       F  0.99524257  0.90274473  0.15682065    -0.23100
F1500       F  0.93557546  0.88581283  0.16856363    -0.20400
F1501       F  0.95562778  0.88747877  0.11676749    -0.20100
F1502       F  0.05742774  0.75906809  0.18987047    -0.20100
F1503       F  0.04990189  0.75221501  0.13603753    -0.20500
F1504       F  0.00170564  0.74060284  0.16986980    -0.23100
C1505       C  0.48117746  0.91200411  0.85241498    -0.06000
C1506       C  0.45851876  0.93822558  0.85005450     0.00000
C1507       C  0.47762494  0.96527669  0.84140838    -0.08600
C1508       C  0.51900918  0.96560807  0.84039880    -0.06000
C1509       C  0.54159854  0.94006646  0.84739806    -0.00100
C1510       C  0.52227888  0.91232217  0.85019510    -0.08500
C1511       C  0.54438219  0.88302184  0.85342591     0.61900
H1512       H  0.46674125  0.89115488  0.85772301     0.12500
H1513       H  0.53407161  0.98652548  0.83723710     0.12600
C1514       C  0.45527590  0.99425678  0.83543302     0.62100
F1515       F  0.52293402  0.86023927  0.83969171    -0.23100
F1516       F  0.55079355  0.87639457  0.88576368    -0.20400
F1517       F  0.57993746  0.88428220  0.83774389    -0.20100
F1518       F  0.43595209  0.00265027  0.86311654    -0.20100
F1519       F  0.42850900  0.99059542  0.81043337    -0.20500
F1520       F  0.47988118  0.01730231  0.82679606    -0.23100
C1521       C  0.27215548  0.85551390  0.02731259    -0.06000
C1522       C  0.23368096  0.84578455  0.02252683     0.00000
C1523       C  0.21170243  0.85578086  0.99513403    -0.08600
C1524       C  0.22919244  0.87575177  0.97376216    -0.06000
C1525       C  0.26750218  0.88573558  0.97881800    -0.00100
C1526       C  0.28919634  0.87609127  0.00639570    -0.08500
C1527       C  0.32858394  0.88933999  0.01534800     0.61900
H1528       H  0.28795486  0.84843882  0.04897850     0.12500
H1529       H  0.21308035  0.88290049  0.95224144     0.12600
C1530       C  0.17017962  0.84627484  0.98695179     0.62100
F1531       F  0.33929818  0.88259761  0.04698050    -0.23100
F1532       F  0.32628000  0.91997304  0.01238217    -0.20400
F1533       F  0.35750347  0.87846795  0.99546520    -0.20100
F1534       F  0.14519772  0.87048134  0.98969982    -0.20100
F1535       F  0.15697796  0.82364561  0.00654716    -0.20500
F1536       F  0.16856428  0.83626698  0.95543723    -0.23100
C1537       C  0.40109594  0.52534689  0.00739500    -0.06000
C1538       C  0.39683469  0.50811078  0.03593519     0.00000
C1539       C  0.39744785  0.47663104  0.03278002    -0.08600
C1540       C  0.39485761  0.96349589  0.00481460    -0.06000
C1541       C  0.39349074  0.98139724  0.97645975    -0.00100
C1542       C  0.39924716  0.01245387  0.98023925    -0.08500
C1543       C  0.40516448  0.03317211  0.95154608     0.61900
H1544       H  0.40342829  0.54925564  0.00956879     0.12500
H1545       H  0.39399448  0.93960027  0.00222244     0.12600
C1546       C  0.39886015  0.45577958  0.06187996     0.62100
F1547       F  0.41666986  0.56138910  0.95564933    -0.23100
F1548       F  0.37047211  0.03653372  0.93423935    -0.20400
F1549       F  0.43387389  0.02165991  0.93180553    -0.20100
F1550       F  0.36378815  0.45719788  0.07817904    -0.20100
F1551       F  0.42943206  0.46362963  0.08229063    -0.20500
F1552       F  0.39833371  0.92506510  0.05637809    -0.23100
C1553       C  0.21823851  0.95835501  0.11192842    -0.06000
C1554       C  0.25366965  0.96123941  0.12923726     0.00000
C1555       C  0.26726535  0.93705914  0.14906470    -0.08600
C1556       C  0.24635923  0.91032108  0.14859111    -0.06000
C1557       C  0.21270829  0.90668119  0.12936605    -0.00100
C1558       C  0.19742811  0.93134609  0.11149886    -0.08500
C1559       C  0.16032491  0.92899492  0.09109490     0.61900
H1560       H  0.21199443  0.47738918  0.08871419     0.12500
H1561       H  0.25729159  0.89126725  0.16226373     0.12600
C1562       C  0.30366650  0.93873009  0.17074234     0.62100
F1563       F  0.15113528  0.95553342  0.07540653    -0.23100
F1564       F  0.12918845  0.92171703  0.11065094    -0.20400
F1565       F  0.16498906  0.90735085  0.06787659    -0.20100
F1566       F  0.30241121  0.96397005  0.18951636    -0.20100
F1567       F  0.33698890  0.93911854  0.15209085    -0.20500
F1568       F  0.30670778  0.91452062  0.19162422    -0.23100
C1569       C  0.30651341  0.67735597  0.10785516    -0.06000
C1570       C  0.29247821  0.65643244  0.13033218     0.00000
C1571       C  0.26149265  0.66462732  0.15097342    -0.08600
C1572       C  0.24447102  0.69297711  0.14727672    -0.06000
C1573       C  0.25684635  0.71352042  0.12367526    -0.00100
C1574       C  0.28922512  0.70591299  0.10406746    -0.08500
C1575       C  0.30468185  0.72717286  0.07860521     0.61900
H1576       H  0.32999050  0.67056074  0.09208767     0.12500
H1577       H  0.22051920  0.69915591  0.16284796     0.12600
C1578       C  0.24616201  0.64364995  0.17691774     0.62100
F1579       F  0.33313299  0.71394496  0.05983766    -0.23100
F1580       F  0.32124029  0.75158597  0.09345378    -0.20400
F1581       F  0.27445208  0.73651746  0.05827038    -0.20100
F1582       F  0.27720136  0.63149690  0.19448184    -0.20100
F1583       F  0.22467372  0.62107001  0.16297112    -0.20500
F1584       F  0.22195111  0.65827110  0.19831196    -0.23100
C1585       C  0.25178400  0.54152194  0.85695516    -0.06000
C1586       C  0.24024043  0.52205244  0.88180659     0.00000
C1587       C  0.21027191  0.53103172  0.90294237    -0.08600
C1588       C  0.19506001  0.56039931  0.90013458    -0.06000
C1589       C  0.20913605  0.58070217  0.87686220    -0.00100
C1590       C  0.23635992  0.57055689  0.85381894    -0.08500
C1591       C  0.25079911  0.59064064  0.82684939     0.61900
H1592       H  0.27440172  0.53421918  0.84060980     0.12500
H1593       H  0.17406300  0.56832024  0.91752412     0.12600
C1594       C  0.18697484  0.00957221  0.92540994     0.62100
F1595       F  0.26535674  0.57414147  0.80151220    -0.23100
F1596       F  0.28037690  0.60863350  0.83850722    -0.20400
F1597       F  0.22047867  0.60827325  0.81473568    -0.20100
F1598       F  0.21389710  0.00077089  0.94892358    -0.20100
F1599       F  0.17403434  0.98482873  0.90887787    -0.20500
F1600       F  0.16742298  0.52317200  0.94779951    -0.23100
C1601       C  0.25973716  0.79264359  0.85478234    -0.06000
C1602       C  0.27098247  0.77297368  0.88002669     0.00000
C1603       C  0.30251236  0.78128049  0.90065032    -0.08600
C1604       C  0.31778333  0.81050926  0.89786787    -0.06000
C1605       C  0.30361210  0.83098017  0.87439173    -0.00100
C1606       C  0.27601111  0.82109569  0.85113622    -0.08500
C1607       C  0.26260756  0.83953782  0.82204427     0.61900
H1608       H  0.23731004  0.78581250  0.83762988     0.12500
H1609       H  0.33940662  0.81815950  0.91521959     0.12600
C1610       C  0.31921708  0.75989943  0.92585249     0.62100
F1611       F  0.26885567  0.82341040  0.79421413    -0.23100
F1612       F  0.28251006  0.86607833  0.81896063    -0.20400
F1613       F  0.22297526  0.84568403  0.82440237    -0.20100
F1614       F  0.33558589  0.73558260  0.91065425    -0.20100
F1615       F  0.28994404  0.75037061  0.94614468    -0.20500
F1616       F  0.34812917  0.77299632  0.94456694    -0.23100
C1617       C  0.09332660  0.73285129  0.98928635    -0.06000
C1618       C  0.12743170  0.73691383  0.97081866     0.00000
C1619       C  0.16016514  0.75104688  0.98526046    -0.08600
C1620       C  0.15794233  0.76008251  0.01761511    -0.06000
C1621       C  0.12369480  0.75702204  0.03572959    -0.00100
C1622       C  0.09054138  0.74361741  0.02135140    -0.08500
C1623       C  0.05270150  0.74118954  0.03981299     0.61900
H1624       H  0.06887512  0.72124685  0.97835414     0.12500
H1625       H  0.18294826  0.77070341  0.02894724     0.12600
C1626       C  0.19772440  0.75615662  0.96673264     0.62100
F1627       F  0.02409755  0.72651316  0.02224520    -0.23100
F1628       F  0.03887699  0.76939917  0.04683710    -0.20400
F1629       F  0.05937764  0.72564967  0.06836899    -0.20100
F1630       F  0.19018891  0.77503678  0.94081755    -0.20100
F1631       F  0.21211030  0.72939192  0.95548891    -0.20500
F1632       F  0.22655240  0.76897446  0.98578783    -0.23100
C1633       C  0.24768288  0.62689402  0.03660836    -0.06000
C1634       C  0.26367493  0.59883875  0.02967125     0.00000
C1635       C  0.26844032  0.58960332  0.99759743    -0.08600
C1636       C  0.25764573  0.60944746  0.97282162    -0.06000
C1637       C  0.24258886  0.63780580  0.97971632    -0.00100
C1638       C  0.23656818  0.64668072  0.01184261    -0.08500
C1639       C  0.21942078  0.67698459  0.01966063     0.61900
H1640       H  0.24542474  0.63357281  0.06164009     0.12500
H1641       H  0.26020020  0.60280965  0.94779782     0.12600
C1642       C  0.28527206  0.55918880  0.98999456     0.62100
F1643       F  0.21619400  0.68114112  0.05264311    -0.23100
F1644       F  0.18244048  0.67997111  0.00590590    -0.20400
F1645       F  0.24345527  0.69888686  0.00746143    -0.20100
F1646       F  0.26269621  0.53742080  0.00430887    -0.20100
F1647       F  0.32315498  0.55702158  0.00196843    -0.20500
F1648       F  0.28601708  0.55405231  0.95707091    -0.23100
C1649       C  0.74082025  0.68519203  0.15779934    -0.06000
C1650       C  0.70716236  0.67817341  0.13987934     0.00000
C1651       C  0.68798573  0.70114873  0.12161909    -0.08600
C1652       C  0.70602303  0.72942718  0.11921712    -0.06000
C1653       C  0.74209679  0.73525593  0.13456414    -0.00100
C1654       C  0.75855005  0.71321848  0.15583684    -0.08500
C1655       C  0.79388233  0.71909244  0.17759510     0.61900
H1656       H  0.75429298  0.66775953  0.17245617     0.12500
H1657       H  0.69309114  0.74671223  0.10405554     0.12600
C1658       C  0.64955223  0.69573636  0.10384232     0.62100
F1659       F  0.80285720  0.69504508  0.19758763    -0.23100
F1660       F  0.78555295  0.74287659  0.19722296    -0.20400
F1661       F  0.82678216  0.72495552  0.15957555    -0.20100
F1662       F  0.62153481  0.68664630  0.12560467    -0.20100
F1663       F  0.65442413  0.67402724  0.08079652    -0.20500
F1664       F  0.63565174  0.72121068  0.08835911    -0.23100
C1665       C  0.78805885  0.94091719  0.09225653    -0.06000
C1666       C  0.79659512  0.92888225  0.12304351     0.00000
C1667       C  0.79291284  0.94692312  0.15060325    -0.08600
C1668       C  0.77878737  0.97634635  0.14655542    -0.06000
C1669       C  0.76801606  0.98779982  0.11590635    -0.00100
C1670       C  0.77377798  0.97023245  0.08820262    -0.08500
C1671       C  0.76494306  0.98262081  0.05464431     0.61900
H1672       H  0.79123166  0.92670079  0.07141889     0.12500
H1673       H  0.77349675  0.98993458  0.16756958     0.12600
C1674       C  0.80214791  0.93451453  0.18404171     0.62100
F1675       F  0.77391180  0.96233846  0.03080337    -0.23100
F1676       F  0.82015818  0.51817146  0.07058409    -0.20400
F1677       F  0.72566547  0.99000022  0.05157751    -0.20100
F1678       F  0.84043803  0.92418841  0.18523609    -0.20100
F1679       F  0.77719585  0.91121829  0.19085448    -0.20500
F1680       F  0.79781659  0.95585990  0.20769524    -0.23100
C1681       C  0.63886911  0.53055833  0.96963681    -0.06000
C1682       C  0.61476816  0.00662939  0.96411810     0.00000
C1683       C  0.59002753  0.99864295  0.99013860    -0.08600
C1684       C  0.59583405  0.01204908  0.02069752    -0.06000
C1685       C  0.62746473  0.53366099  0.02785834    -0.00100
C1686       C  0.64578898  0.54479051  0.99929761    -0.08500
C1687       C  0.67528427  0.57004902  0.99996766     0.61900
H1688       H  0.65391969  0.53816405  0.94823516     0.12500
H1689       H  0.57791570  0.00547441  0.04095708     0.12600
C1690       C  0.55761045  0.97609544  0.98575097     0.62100
F1691       F  0.69377560  0.57388700  0.97062641    -0.23100
F1692       F  0.70396804  0.56374796  0.02289405    -0.20400
F1693       F  0.65669991  0.59661392  0.00704490    -0.20100
F1694       F  0.57289603  0.94760615  0.98866639    -0.20100
F1695       F  0.54002995  0.97956178  0.95560298    -0.20500
F1696       F  0.52885210  0.97970304  0.00873304    -0.23100
C1697       C  0.48440026  0.59416408  0.14884617    -0.06000
C1698       C  0.46715245  0.56644828  0.15535027     0.00000
C1699       C  0.49201893  0.54275338  0.16641185    -0.08600
C1700       C  0.53322491  0.54626098  0.16478195    -0.06000
C1701       C  0.55032204  0.57286976  0.15373185    -0.00100
C1702       C  0.52533856  0.59809556  0.14871449    -0.08500
C1703       C  0.54112849  0.62922030  0.14278267     0.61900
H1704       H  0.46545966  0.61271927  0.14212109     0.12500
H1705       H  0.55227110  0.52743284  0.17011568     0.12600
C1706       C  0.47564253  0.51346133  0.17860834     0.62100
F1707       F  0.51276723  0.65078753  0.14804578    -0.23100
F1708       F  0.55332616  0.63225059  0.11119370    -0.20400
F1709       F  0.57213729  0.63462681  0.16374185    -0.20100
F1710       F  0.45677004  0.49881720  0.15368959    -0.20100
F1711       F  0.44955030  0.51884322  0.20325658    -0.20500
F1712       F  0.50480742  0.49481158  0.19087174    -0.23100
C1713       C  0.88263942  0.73381449  0.99621609    -0.06000
C1714       C  0.88860091  0.75257822  0.96927738     0.00000
C1715       C  0.89553156  0.78317022  0.97470458    -0.08600
C1716       C  0.89441244  0.79392706  0.00664934    -0.06000
C1717       C  0.88471237  0.77573083  0.03347349    -0.00100
C1718       C  0.87981707  0.74470988  0.02807632    -0.08500
C1719       C  0.86986453  0.72307854  0.05512964     0.61900
H1720       H  0.87777360  0.71041737  0.99185057     0.12500
H1721       H  0.89915941  0.81741617  0.01054733     0.12600
C1722       C  0.90382713  0.80458731  0.94705033     0.62100
F1723       F  0.86722589  0.69404309  0.04439018    -0.23100
F1724       F  0.83406495  0.73068670  0.06810199    -0.20400
F1725       F  0.89872612  0.72375598  0.07887155    -0.20100
F1726       F  0.87013320  0.80934019  0.92876634    -0.20100
F1727       F  0.93283536  0.79293183  0.92771413    -0.20500
F1728       F  0.91645635  0.83194546  0.95806819    -0.23100
C1729       C  0.74724358  0.81011146  0.85690424    -0.06000
C1730       C  0.74368235  0.79168546  0.88449977     0.00000
C1731       C  0.71865294  0.80108820  0.90972473    -0.08600
C1732       C  0.70080477  0.82952717  0.90731562    -0.06000
C1733       C  0.70678986  0.84839584  0.88060514    -0.00100
C1734       C  0.72850085  0.83794775  0.85422733    -0.08500
C1735       C  0.73349279  0.85613330  0.82350914     0.61900
H1736       H  0.76532628  0.80278506  0.83709888     0.12500
H1737       H  0.68386579  0.83804774  0.92722935     0.12600
C1738       C  0.71228748  0.78218990  0.93971446     0.62100
F1739       F  0.73462346  0.83759017  0.79698291    -0.23100
F1740       F  0.76818014  0.87176262  0.82533383    -0.20400
F1741       F  0.70269587  0.87595623  0.81860730    -0.20100
F1742       F  0.74792183  0.77617596  0.95474109    -0.20100
F1743       F  0.69438410  0.75584512  0.93120022    -0.20500
F1744       F  0.68847275  0.79633748  0.96176521    -0.23100
C1745       C  0.79610707  0.58192896  0.90914814    -0.06000
C1746       C  0.78955169  0.60095452  0.88225736     0.00000
C1747       C  0.76712771  0.59033978  0.85574535    -0.08600
C1748       C  0.74996477  0.56202195  0.85800246    -0.06000
C1749       C  0.75492923  0.54357246  0.88540317    -0.00100
C1750       C  0.77933931  0.55323936  0.91111128    -0.08500
C1751       C  0.80084111  0.02891057  0.93303488     0.61900
H1752       H  0.81329110  0.59018872  0.92928931     0.12500
H1753       H  0.73180191  0.55415787  0.83823794     0.12600
C1754       C  0.76133474  0.60855480  0.82494957     0.62100
F1755       F  0.80839270  0.54837179  0.96411697    -0.23100
F1756       F  0.81889196  0.00466129  0.91899830    -0.20400
F1757       F  0.76945265  0.01933595  0.95112055    -0.20100
F1758       F  0.79652317  0.62093765  0.81585733    -0.20100
F1759       F  0.73403759  0.63091899  0.82981724    -0.20500
F1760       F  0.74811889  0.59118882  0.79963961    -0.23100
C1761       C  0.98103140  0.66222448  0.85697926    -0.06000
C1762       C  0.96356451  0.69065819  0.85352060     0.00000
C1763       C  0.98806382  0.71485568  0.84411187    -0.08600
C1764       C  0.02899636  0.71037645  0.84355154    -0.06000
C1765       C  0.04650951  0.68280821  0.85128279    -0.00100
C1766       C  0.02185760  0.65769934  0.85469865    -0.08500
C1767       C  0.03697539  0.62585121  0.85581567     0.61900
H1768       H  0.96274488  0.64317851  0.86217941     0.12500
H1769       H  0.04786851  0.72932961  0.83978532     0.12600
C1770       C  0.97229917  0.74592318  0.83637715     0.62100
F1771       F  0.01479115  0.60867253  0.83498268    -0.23100
F1772       F  0.03359534  0.61452120  0.88682220    -0.20400
F1773       F  0.07554316  0.62347140  0.84621604    -0.20100
F1774       F  0.95889741  0.75916332  0.86424625    -0.20100
F1775       F  0.94228280  0.74430467  0.81368446    -0.20500
F1776       F  0.00081930  0.76418937  0.82357626    -0.23100
C1777       C  0.73415657  0.65688870  0.02911336    -0.06000
C1778       C  0.75158476  0.62930100  0.03779992     0.00000
C1779       C  0.78614435  0.61984506  0.02204319    -0.08600
C1780       C  0.79971454  0.63736076  0.99647600    -0.06000
C1781       C  0.78054698  0.66377816  0.98670761    -0.00100
C1782       C  0.74810591  0.67441020  0.00383682    -0.08500
C1783       C  0.72865761  0.70412688  0.99589860     0.61900
H1784       H  0.70883545  0.66475276  0.04200938     0.12500
H1785       H  0.82486342  0.62989939  0.98293273     0.12600
C1786       C  0.80862177  0.59159029  0.03133740     0.62100
F1787       F  0.70286596  0.71278154  0.01969604    -0.23100
F1788       F  0.70784026  0.70219145  0.96715023    -0.20400
F1789       F  0.75692414  0.72587640  0.99322982    -0.20100
F1790       F  0.84057437  0.58683248  0.01168682    -0.20100
F1791       F  0.78445943  0.56715423  0.02863502    -0.20500
F1792       F  0.82266603  0.59372106  0.06271943    -0.23100
C1793       C  0.77498807  0.79814210  0.28148685    -0.06000
C1794       C  0.73367961  0.79937598  0.28359652     0.00000
C1795       C  0.71112761  0.80399437  0.25514748    -0.08600
C1796       C  0.73081885  0.80763070  0.22563054    -0.06000
C1797       C  0.77210120  0.80698419  0.22369228    -0.00100
C1798       C  0.79467026  0.80200720  0.25203820    -0.08500
C1799       C  0.83916115  0.80212906  0.25144884     0.61900
H1800       H  0.79196487  0.79451070  0.30347433     0.12500
H1801       H  0.71393355  0.81112383  0.20357144     0.12600
C1802       C  0.66677796  0.80622105  0.25608434     0.62100
F1803       F  0.85538658  0.80028795  0.28223638    -0.23100
F1804       F  0.85199463  0.82821716  0.23719192    -0.20400
F1805       F  0.85270296  0.77809368  0.23407798    -0.20100
F1806       F  0.65574180  0.82843073  0.27714032    -0.20100
F1807       F  0.65147914  0.77938861  0.26633054    -0.20500
F1808       F  0.65070934  0.81290774  0.22598087    -0.23100
C1809       C  0.77346091  0.95136645  0.78195383    -0.06000
C1810       C  0.73297920  0.95854150  0.78369006     0.00000
C1811       C  0.71198883  0.96400145  0.75435661    -0.08600
C1812       C  0.73188597  0.96092812  0.72491368    -0.06000
C1813       C  0.77197084  0.95334833  0.72340331    -0.00100
C1814       C  0.79343052  0.94898865  0.75246515    -0.08500
C1815       C  0.83692436  0.94141868  0.75249577     0.61900
H1816       H  0.78999681  0.94795627  0.80418398     0.12500
H1817       H  0.71613198  0.96495112  0.70237449     0.12600
C1818       C  0.66898613  0.97303019  0.75359645     0.62100
F1819       F  0.85133401  0.93552384  0.78333405    -0.23100
F1820       F  0.85770178  0.96512651  0.74008408    -0.20400
F1821       F  0.84348943  0.91648042  0.73388541    -0.20100
F1822       F  0.66443910  0.00044320  0.76809539    -0.20100
F1823       F  0.64703439  0.95191281  0.76963566    -0.20500
F1824       F  0.65426877  0.97553585  0.72234603    -0.23100
C1825       C  0.78495259  0.85820575  0.52622239    -0.06000
C1826       C  0.77703888  0.88902950  0.52627107     0.00000
C1827       C  0.75715060  0.90270748  0.50014881    -0.08600
C1828       C  0.74370948  0.88445414  0.47520925    -0.06000
C1829       C  0.74892060  0.85328938  0.47634469    -0.00100
C1830       C  0.77114322  0.83989606  0.50144393    -0.08500
C1831       C  0.77963944  0.80667863  0.50239815     0.61900
H1832       H  0.80129991  0.84845734  0.54627265     0.12500
H1833       H  0.72836281  0.89432707  0.45480265     0.12600
C1834       C  0.75059070  0.93615580  0.49850289     0.62100
F1835       F  0.79825257  0.79800679  0.53091899    -0.23100
F1836       F  0.80375216  0.79931901  0.47703723    -0.20400
F1837       F  0.74510094  0.79093924  0.49969466    -0.20100
F1838       F  0.78592474  0.95062003  0.50250477    -0.20100
F1839       F  0.72536133  0.94480520  0.52260817    -0.20500
F1840       F  0.73442856  0.94507821  0.46911973    -0.23100
C1841       C  0.21327360  0.81079467  0.24573460    -0.06000
C1842       C  0.23438677  0.79644838  0.22169723     0.00000
C1843       C  0.27338049  0.78661507  0.22876933    -0.08600
C1844       C  0.28973968  0.79167224  0.25977088    -0.06000
C1845       C  0.26907932  0.80669041  0.28392506    -0.00100
C1846       C  0.22969025  0.81647676  0.27660111    -0.08500
C1847       C  0.20417578  0.83278088  0.30078464     0.61900
H1848       H  0.18394723  0.81847800  0.23958391     0.12500
H1849       H  0.31929815  0.78413299  0.26525935     0.12600
C1850       C  0.29764979  0.77024251  0.20388342     0.62100
F1851       F  0.16663436  0.83813464  0.28888091    -0.23100
F1852       F  0.22042899  0.86010452  0.30792529    -0.20400
F1853       F  0.20073536  0.81588472  0.32868553    -0.20100
F1854       F  0.30792533  0.78947183  0.17919790    -0.20100
F1855       F  0.27628855  0.74694001  0.19128908    -0.20500
F1856       F  0.33189971  0.75853044  0.21723401    -0.23100
C1857       C  0.52692113  0.84138179  0.35293231    -0.06000
C1858       C  0.54489653  0.81316217  0.35410714     0.00000
C1859       C  0.52141030  0.78741127  0.35015064    -0.08600
C1860       C  0.48034089  0.79085433  0.34860217    -0.06000
C1861       C  0.46225915  0.81890351  0.35136315    -0.00100
C1862       C  0.48589685  0.84471679  0.35089841    -0.08500
C1863       C  0.46819368  0.87576337  0.34992311     0.61900
H1864       H  0.54512039  0.86092209  0.35538260     0.12500
H1865       H  0.46196231  0.77131419  0.34835238     0.12600
C1866       C  0.53913298  0.75623393  0.35043047     0.62100
F1867       F  0.49443550  0.89613569  0.33754662    -0.23100
F1868       F  0.45840723  0.88439018  0.38078817    -0.20400
F1869       F  0.43501201  0.87641229  0.33032962    -0.20100
F1870       F  0.55940909  0.75122179  0.37913030    -0.20100
F1871       F  0.56437588  0.75317297  0.32476439    -0.20500
F1872       F  0.51083038  0.73445435  0.34762875    -0.23100
C1873       C  0.22604437  0.95019949  0.78479267    -0.06000
C1874       C  0.26695945  0.95413785  0.78794429     0.00000
C1875       C  0.28932256  0.95814968  0.75977016    -0.08600
C1876       C  0.26988359  0.95848881  0.72945606    -0.06000
C1877       C  0.22908932  0.95419574  0.72627129    -0.00100
C1878       C  0.20673104  0.94974638  0.75442103    -0.08500
C1879       C  0.16327223  0.94282507  0.75234646     0.61900
H1880       H  0.20925295  0.94684300  0.80653948     0.12500
H1881       H  0.28669335  0.96167535  0.70769103     0.12600
C1882       C  0.33364155  0.96035902  0.76158092     0.62100
F1883       F  0.14800034  0.93601310  0.78233683    -0.23100
F1884       F  0.15736276  0.91860000  0.73248771    -0.20400
F1885       F  0.14287082  0.96712666  0.73992411    -0.20100
F1886       F  0.34894598  0.93601871  0.77829801    -0.20100
F1887       F  0.34421185  0.98617618  0.77727545    -0.20500
F1888       F  0.35015293  0.96088156  0.73120863    -0.23100
C1889       C  0.02235798  0.95519383  0.67018370    -0.06000
C1890       C  0.04236714  0.92944667  0.66035492     0.00000
C1891       C  0.02092987  0.90288548  0.65610844    -0.08600
C1892       C  0.97984098  0.90446629  0.65530484    -0.06000
C1893       C  0.95941175  0.93134424  0.66035614    -0.00100
C1894       C  0.98111555  0.95665109  0.67074818    -0.08500
C1895       C  0.96180421  0.98575179  0.68073570     0.61900
H1896       H  0.03905843  0.97520645  0.67448634     0.12500
H1897       H  0.96374571  0.88457684  0.64905932     0.12600
C1898       C  0.04007087  0.87280463  0.65066758     0.62100
F1899       F  0.98820376  0.00447141  0.69588132    -0.23100
F1900       F  0.93206491  0.98008323  0.70231549    -0.20400
F1901       F  0.94686153  0.00066937  0.65385331    -0.20100
F1902       F  0.07877820  0.87210950  0.66102739    -0.20100
F1903       F  0.03810463  0.86605156  0.61814984    -0.20500
F1904       F  0.02049124  0.85110438  0.66790811    -0.23100
C1905       C  0.27538333  0.89355869  0.52924334    -0.06000
C1906       C  0.23573447  0.90138874  0.52695216     0.00000
C1907       C  0.21324507  0.89252944  0.49962252    -0.08600
C1908       C  0.23077893  0.87407821  0.47672063    -0.06000
C1909       C  0.27015397  0.86537318  0.47947983    -0.00100
C1910       C  0.29336057  0.87589557  0.50586775    -0.08500
C1911       C  0.33691722  0.86903371  0.50981909     0.61900
H1912       H  0.29209555  0.90081184  0.55012692     0.12500
H1913       H  0.21399388  0.86704619  0.45578148     0.12600
C1914       C  0.17132566  0.90311159  0.49386896     0.62100
F1915       F  0.35028273  0.87462110  0.54090492    -0.23100
F1916       F  0.35805227  0.88664763  0.48882159    -0.20400
F1917       F  0.34432383  0.83940823  0.50364874    -0.20100
F1918       F  0.16845762  0.93331490  0.49977829    -0.20100
F1919       F  0.14627969  0.88774121  0.51386941    -0.20500
F1920       F  0.15915813  0.89848483  0.46226522    -0.23100
C1921       C  0.22069905  0.53287357  0.25910216    -0.06000
C1922       C  0.24202256  0.54569087  0.28450712     0.00000
C1923       C  0.28240587  0.55301054  0.27926400    -0.08600
C1924       C  0.29876814  0.54853656  0.24855572    -0.06000
C1925       C  0.27658909  0.53781512  0.22278581    -0.00100
C1926       C  0.23699320  0.52924464  0.22811897    -0.08500
C1927       C  0.21173755  0.51631377  0.20123472     0.61900
H1928       H  0.19049259  0.52696736  0.26330202     0.12500
H1929       H  0.32861850  0.55510104  0.24380421     0.12600
C1930       C  0.30896341  0.56577799  0.30545092     0.62100
F1931       F  0.17641586  0.50581239  0.21263673    -0.23100
F1932       F  0.23113440  0.49276240  0.18724470    -0.20400
F1933       F  0.20349734  0.53777399  0.17795548    -0.20100
F1934       F  0.30720972  0.54844127  0.33304931    -0.20100
F1935       F  0.29777511  0.59469044  0.31219597    -0.20500
F1936       F  0.34782278  0.56643847  0.29618946    -0.23100
C1937       C  0.09492675  0.99544083  0.48149878    -0.06000
C1938       C  0.12663634  0.52487538  0.47628667     0.00000
C1939       C  0.14353459  0.53598619  0.50567977    -0.08600
C1940       C  0.13655993  0.52112982  0.53518783    -0.06000
C1941       C  0.10865481  0.99167025  0.53978512    -0.00100
C1942       C  0.08942419  0.98072244  0.51159614    -0.08500
C1943       C  0.06233759  0.95416845  0.51330264     0.61900
H1944       H  0.08177011  0.98657510  0.45969978     0.12500
H1945       H  0.15119816  0.52852972  0.55700729     0.12600
C1946       C  0.17055403  0.56269696  0.50644101     0.62100
F1947       F  0.03740737  0.95329172  0.48667267    -0.23100
F1948       F  0.03948060  0.95588209  0.54062924    -0.20400
F1949       F  0.08393455  0.92807442  0.51433049    -0.20100
F1950       F  0.14940429  0.58809598  0.49843437    -0.20100
F1951       F  0.18725882  0.56718475  0.53668066    -0.20500
F1952       F  0.20077239  0.55843808  0.48502709    -0.23100
C1953       C  0.29724315  0.93675905  0.41599929    -0.06000
C1954       C  0.30518931  0.92544012  0.38513452     0.00000
C1955       C  0.29943398  0.94404076  0.35777360    -0.08600
C1956       C  0.28203901  0.97240590  0.36186826    -0.06000
C1957       C  0.27060073  0.98254950  0.39246411    -0.00100
C1958       C  0.28037067  0.96524819  0.42016346    -0.08500
C1959       C  0.24622239  0.46993994  0.44745066     0.61900
H1960       H  0.30243309  0.92241533  0.43684379     0.12500
H1961       H  0.27499689  0.98613898  0.34088617     0.12600
C1962       C  0.31029878  0.93332836  0.32446087     0.62100
F1963       F  0.25509649  0.44976639  0.47195411    -0.23100
F1964       F  0.20600081  0.47061221  0.44297277    -0.20400
F1965       F  0.25875249  0.49767038  0.45737255    -0.20100
F1966       F  0.28722376  0.90935457  0.31610102    -0.20100
F1967       F  0.34927556  0.92460379  0.32453287    -0.20500
F1968       F  0.30513109  0.95545251  0.30125420    -0.23100
C1969       C  0.23797581  0.68242639  0.35097004    -0.06000
C1970       C  0.20547090  0.67513031  0.36957419     0.00000
C1971       C  0.18870472  0.69773201  0.38920262    -0.08600
C1972       C  0.20751555  0.72588529  0.39145974    -0.06000
C1973       C  0.24256095  0.73194879  0.37511707    -0.00100
C1974       C  0.25685847  0.71006101  0.35317348    -0.08500
C1975       C  0.29149299  0.71548325  0.33114028     0.61900
H1976       H  0.24989297  0.66529338  0.33559109     0.12500
H1977       H  0.19616308  0.74277857  0.40739880     0.12600
C1978       C  0.15228266  0.69184852  0.40881245     0.62100
F1979       F  0.29727108  0.69236918  0.30973983    -0.23100
F1980       F  0.32575529  0.71842885  0.34891720    -0.20400
F1981       F  0.28436740  0.74077857  0.31293909    -0.20100
F1982       F  0.15958754  0.66924519  0.43097851    -0.20100
F1983       F  0.12185502  0.68371513  0.38842178    -0.20500
F1984       F  0.14040698  0.71679071  0.42561478    -0.23100
C1985       C  0.23692621  0.69801021  0.72555000    -0.06000
C1986       C  0.27825140  0.70050441  0.72421735     0.00000
C1987       C  0.29961047  0.70373495  0.75352556    -0.08600
C1988       C  0.27892446  0.70294423  0.78283029    -0.06000
C1989       C  0.23782530  0.69959516  0.78399806    -0.00100
C1990       C  0.21631862  0.69758847  0.75480548    -0.08500
C1991       C  0.17206225  0.69435219  0.75441117     0.61900
H1992       H  0.22038372  0.69666317  0.70312785     0.12500
H1993       H  0.29491817  0.70510648  0.80545513     0.12600
C1994       C  0.34381801  0.70748991  0.75425470     0.62100
F1995       F  0.15738848  0.68984365  0.72350490    -0.23100
F1996       F  0.15488263  0.71994424  0.76622349    -0.20400
F1997       F  0.16152927  0.67026493  0.77337145    -0.20100
F1998       F  0.35360353  0.73416198  0.73961801    -0.20100
F1999       F  0.36150203  0.68418350  0.73821593    -0.20500
F2000       F  0.35873169  0.70781806  0.78552454    -0.23100
C2001       C  0.28226791  0.53900414  0.59960878    -0.06000
C2002       C  0.25549692  0.53239330  0.62407420     0.00000
C2003       C  0.25084024  0.55299080  0.64977900    -0.08600
C2004       C  0.27101230  0.58020253  0.64878792    -0.06000
C2005       C  0.29594400  0.58767107  0.62341923    -0.00100
C2006       C  0.30229124  0.56651414  0.59856508    -0.08500
C2007       C  0.32812934  0.57357770  0.57002044     0.61900
H2008       H  0.28595422  0.52298683  0.58047168     0.12500
H2009       H  0.26615618  0.59661305  0.66737009     0.12600
C2010       C  0.22461565  0.54663156  0.67840494     0.62100
F2011       F  0.32965589  0.55033144  0.54830646    -0.23100
F2012       F  0.36588531  0.57915376  0.58070495    -0.20400
F2013       F  0.31349441  0.59827350  0.55377487    -0.20100
F2014       F  0.23236672  0.51844609  0.69052870    -0.20100
F2015       F  0.18568927  0.54876762  0.66894205    -0.20500
F2016       F  0.23078247  0.56654473  0.70328342    -0.23100
C2017       C  0.23952247  0.83158505  0.65424630    -0.06000
C2018       C  0.20870012  0.83774913  0.63252602     0.00000
C2019       C  0.19466223  0.81457405  0.61236976    -0.08600
C2020       C  0.21531315  0.78713892  0.61199037    -0.06000
C2021       C  0.24852904  0.78201255  0.63171873    -0.00100
C2022       C  0.25891333  0.80388368  0.65505859    -0.08500
C2023       C  0.28974556  0.79830415  0.68137800     0.61900
H2024       H  0.24924259  0.84920011  0.67009142     0.12500
H2025       H  0.20647727  0.76985573  0.59542462     0.12600
C2026       C  0.15899291  0.81900176  0.59056628     0.62100
F2027       F  0.28791318  0.81952608  0.70541150    -0.23100
F2028       F  0.32688521  0.79922839  0.66845247    -0.20400
F2029       F  0.28373888  0.77086771  0.69582317    -0.20100
F2030       F  0.16563008  0.84174638  0.56866130    -0.20100
F2031       F  0.12679566  0.82602872  0.60908220    -0.20500
F2032       F  0.15019916  0.79357273  0.57335410    -0.23100
C2033       C  0.35342562  0.77342303  0.49475643    -0.06000
C2034       C  0.38420458  0.76839125  0.47328033     0.00000
C2035       C  0.41701042  0.75141405  0.48414885    -0.08600
C2036       C  0.41712496  0.73931128  0.51610865    -0.06000
C2037       C  0.38632565  0.74496084  0.53786670    -0.00100
C2038       C  0.35398892  0.76255939  0.52676837    -0.08500
C2039       C  0.31916247  0.76913648  0.54816522     0.61900
H2040       H  0.32846464  0.78628650  0.48600873     0.12500
H2041       H  0.44121329  0.72525964  0.52431137     0.12600
C2042       C  0.45170988  0.74669615  0.46227826     0.62100
F2043       F  0.33128530  0.78580655  0.57430680    -0.23100
F2044       F  0.30301507  0.74277233  0.55886131    -0.20400
F2045       F  0.28999198  0.78512351  0.53199698    -0.20100
F2046       F  0.48113719  0.73014731  0.47739567    -0.20100
F2047       F  0.46701164  0.77397253  0.45344462    -0.25300
F2048       F  0.43983504  0.73180486  0.43478961    -0.23100
C2049       C  0.22004395  0.63514646  0.49170288    -0.06000
C2050       C  0.24687503  0.62098221  0.47115565     0.00000
C2051       C  0.28750485  0.62539774  0.47578732    -0.08600
C2052       C  0.29932659  0.64471186  0.50032267    -0.06000
C2053       C  0.27249996  0.65702704  0.52231064    -0.00100
C2054       C  0.23190240  0.65232167  0.51783382    -0.08500
C2055       C  0.20094833  0.66382616  0.54091587     0.61900
H2056       H  0.18904087  0.63221777  0.48756942     0.12500
H2057       H  0.33030454  0.64883576  0.50383039     0.12600
C2058       C  0.31841310  0.60971848  0.45578491     0.62100
F2059       F  0.16329794  0.65657486  0.53104555    -0.23100
F2060       F  0.20272863  0.69451856  0.54263842    -0.20400
F2061       F  0.20703724  0.65137292  0.57127965    -0.20100
F2062       F  0.31485700  0.57921539  0.45947782    -0.20100
F2063       F  0.35611814  0.61714422  0.46533621    -0.20500
F2064       F  0.31390377  0.61748691  0.42353775    -0.23100
C2065       C  0.79928597  0.54413705  0.25818940    -0.06000
C2066       C  0.77454472  0.54192628  0.28468272     0.00000
C2067       C  0.73331275  0.53910480  0.27919521    -0.08600
C2068       C  0.71827304  0.54118679  0.24737455    -0.06000
C2069       C  0.74274514  0.54592352  0.22108586    -0.00100
C2070       C  0.78427780  0.54621478  0.22635002    -0.08500
C2071       C  0.81317638  0.54809577  0.19873026     0.61900
H2072       H  0.83051180  0.54551250  0.26279429     0.12500
H2073       H  0.68698053  0.54044810  0.24288595     0.12600
C2074       C  0.70496054  0.53318322  0.30652955     0.62100
F2075       F  0.85154654  0.54409579  0.20932682    -0.23100
F2076       F  0.81074185  0.57561593  0.18365112    -0.20400
F2077       F  0.80524097  0.52602264  0.17670302    -0.20100
F2078       F  0.70210978  0.55772521  0.32627805    -0.20100
F2079       F  0.71782301  0.50882293  0.32438568    -0.20500
F2080       F  0.66761824  0.52699933  0.29508210    -0.23100
C2081       C  0.76984027  0.66729750  0.35596186    -0.06000
C2082       C  0.80039951  0.66030994  0.37760638     0.00000
C2083       C  0.81602025  0.68323268  0.39739146    -0.08600
C2084       C  0.79709306  0.71141940  0.39745917    -0.06000
C2085       C  0.76404166  0.71737115  0.37784710    -0.00100
C2086       C  0.75211795  0.69557931  0.35492450    -0.08500
C2087       C  0.72124967  0.70186743  0.32881134     0.61900
H2088       H  0.75892516  0.64988339  0.34036689     0.12500
H2089       H  0.80696706  0.72858907  0.41378273     0.12600
C2090       C  0.85149015  0.67777000  0.41914551     0.62100
F2091       F  0.72857218  0.72895688  0.31408803    -0.23100
F2092       F  0.72168218  0.68044154  0.30495448    -0.20400
F2093       F  0.68420849  0.70216732  0.34197485    -0.20100
F2094       F  0.88311731  0.66938772  0.40062587    -0.20100
F2095       F  0.84355297  0.65553473  0.44136519    -0.20500
F2096       F  0.86195795  0.70304867  0.43598497    -0.23100
C2097       C  0.73691680  0.91612396  0.35746368    -0.06000
C2098       C  0.70550207  0.91019083  0.37784649     0.00000
C2099       C  0.68986047  0.93361871  0.39677307    -0.08600
C2100       C  0.70929190  0.96138730  0.39696240    -0.06000
C2101       C  0.74352165  0.96605370  0.37910308    -0.00100
C2102       C  0.75631862  0.94345503  0.35759359    -0.08500
C2103       C  0.79057638  0.94747915  0.33475438     0.61900
H2104       H  0.74780875  0.89821417  0.34258761     0.12500
H2105       H  0.70137321  0.48046007  0.40824131     0.12600
C2106       C  0.65358579  0.92928611  0.41712703     0.62100
F2107       F  0.79255972  0.92492857  0.31221023    -0.23100
F2108       F  0.82555612  0.94730667  0.35197897    -0.20400
F2109       F  0.78642325  0.97392804  0.31784337    -0.20100
F2110       F  0.65960702  0.90662637  0.43946264    -0.20100
F2111       F  0.62220228  0.92216978  0.39726919    -0.20500
F2112       F  0.64384183  0.95479786  0.43385134    -0.23100
C2113       C  0.90119172  0.52123952  0.50147692    -0.06000
C2114       C  0.89326922  0.50470543  0.47324261     0.00000
C2115       C  0.87733978  0.97452958  0.47933076    -0.08600
C2116       C  0.87794429  0.96368403  0.51151354    -0.06000
C2117       C  0.88675424  0.98192283  0.53811747    -0.00100
C2118       C  0.90059812  0.50858259  0.53286083    -0.08500
C2119       C  0.90883483  0.52848055  0.56164582     0.61900
H2120       H  0.90595278  0.54491613  0.49900353     0.12500
H2121       H  0.86883744  0.94107517  0.51636129     0.12600
C2122       C  0.86424208  0.95391174  0.45249864     0.62100
F2123       F  0.92262925  0.55610688  0.55224092    -0.23100
F2124       F  0.93713401  0.51537009  0.58143570    -0.20400
F2125       F  0.88096263  0.04002256  0.57737843    -0.20100
F2126       F  0.91505891  0.45725873  0.42647963    -0.20100
F2127       F  0.82982455  0.96457066  0.43865951    -0.20500
F2128       F  0.85729385  0.92532235  0.46373323    -0.23100
C2129       C  0.98582184  0.53880098  0.34816013    -0.06000
C2130       C  0.96417183  0.56490463  0.35393978     0.00000
C2131       C  0.98407840  0.59247129  0.35435501    -0.08600
C2132       C  0.02535405  0.59245150  0.35430572    -0.06000
C2133       C  0.04747872  0.56596118  0.35229692    -0.00100
C2134       C  0.02722464  0.53874162  0.34713618    -0.08500
C2135       C  0.04876805  0.50934581  0.34273613     0.61900
H2136       H  0.97019359  0.51794183  0.34708954     0.12500
H2137       H  0.04060358  0.61332878  0.35742221     0.12600
C2138       C  0.96249754  0.62200556  0.35645517     0.62100
F2139       F  0.02323359  0.48599267  0.33763491    -0.23100
F2140       F  0.07105194  0.50264737  0.37003168    -0.20400
F2141       F  0.07277262  0.51126137  0.31612152    -0.20100
F2142       F  0.95709329  0.62919621  0.38851290    -0.20100
F2143       F  0.92646045  0.62072372  0.34081726    -0.20500
F2144       F  0.98374464  0.64442909  0.34183689    -0.23100
C2145       C  0.74263437  0.72925250  0.77678558    -0.06000
C2146       C  0.77923825  0.71556972  0.78288732     0.00000
C2147       C  0.79681928  0.69870781  0.75834431    -0.08600
C2148       C  0.77607852  0.69483280  0.72905564    -0.06000
C2149       C  0.73873851  0.70785509  0.72284724    -0.00100
C2150       C  0.72235527  0.72640151  0.74701832    -0.08500
C2151       C  0.68389961  0.74318516  0.74200313     0.61900
H2152       H  0.72988666  0.74228453  0.79596210     0.12500
H2153       H  0.78963395  0.68167852  0.71042642     0.12600
C2154       C  0.83714162  0.68467435  0.76309897     0.62100
F2155       F  0.67294322  0.75857450  0.76934432    -0.23100
F2156       F  0.65427869  0.72345558  0.73458307    -0.20400
F2157       F  0.68769016  0.76377539  0.71720602    -0.20100
F2158       F  0.83792520  0.66694111  0.79056067    -0.20100
F2159       F  0.86474098  0.70686490  0.76632063    -0.20500
F2160       F  0.84758627  0.66712687  0.73720225    -0.23100
C2161       C  0.59696670  0.76224667  0.49358698    -0.06000
C2162       C  0.62260750  0.75125353  0.46981783     0.00000
C2163       C  0.64595489  0.72584019  0.47748007    -0.08600
C2164       C  0.64339139  0.71291236  0.50847811    -0.06000
C2165       C  0.61967480  0.72484947  0.53289886    -0.00100
C2166       C  0.59512013  0.74951215  0.52506411    -0.08500
C2167       C  0.56745432  0.76252585  0.54967751     0.61900
H2168       H  0.57961801  0.78189006  0.48777493     0.12500
H2169       H  0.66212847  0.69409047  0.51453718     0.12600
C2170       C  0.67623663  0.71383473  0.45425175     0.62100
F2171       F  0.54083647  0.78218940  0.53543848    -0.23100
F2172       F  0.58868930  0.77768022  0.57285832    -0.20400
F2173       F  0.54649183  0.74002649  0.56439428    -0.20100
F2174       F  0.70257799  0.73604785  0.44693104    -0.20100
F2175       F  0.65793826  0.70416275  0.42630948    -0.20500
F2176       F  0.69732949  0.69004615  0.46724946    -0.23100
C2177       C  0.79084013  0.77852480  0.63378492    -0.06000
C2178       C  0.75744931  0.77418176  0.61396679     0.00000
C2179       C  0.74087142  0.79914875  0.59722703    -0.08600
C2180       C  0.75601544  0.82754662  0.60322729    -0.06000
C2181       C  0.78817053  0.83218430  0.62407512    -0.00100
C2182       C  0.80686618  0.80719220  0.63879624    -0.08500
C2183       C  0.84256593  0.81087326  0.66048801     0.61900
H2184       H  0.80337492  0.75945761  0.64638714     0.12500
H2185       H  0.74254950  0.84665163  0.59129539     0.12600
C2186       C  0.70637848  0.79664340  0.57370456     0.62100
F2187       F  0.85284022  0.78452627  0.67610516    -0.23100
F2188       F  0.83502978  0.83202163  0.68375207    -0.20400
F2189       F  0.87402545  0.81986541  0.64216931    -0.20100
F2190       F  0.67167895  0.79611152  0.59060083    -0.20100
F2191       F  0.70962943  0.77107416  0.55549572    -0.20500
F2192       F  0.70471521  0.82061464  0.55244425    -0.23100
C2193       C  0.72398173  0.56989595  0.59894786    -0.06000
C2194       C  0.71162956  0.57917464  0.62959721     0.00000
C2195       C  0.71185970  0.55850023  0.65550735    -0.08600
C2196       C  0.72697318  0.52956051  0.65025063    -0.06000
C2197       C  0.74150576  0.52097378  0.61996692    -0.00100
C2198       C  0.73879385  0.54106149  0.59362478    -0.08500
C2199       C  0.69853868  0.01695817  0.57282058     0.61900
H2200       H  0.72303885  0.58582650  0.57918931     0.12500
H2201       H  0.72943302  0.51388657  0.67020753     0.12600
C2202       C  0.69736691  0.56736246  0.68852506     0.62100
F2203       F  0.74276179  0.55370952  0.53724593    -0.23100
F2204       F  0.68091740  0.99036322  0.58102935    -0.20400
F2205       F  0.73244373  0.01119365  0.55593320    -0.20100
F2206       F  0.65812108  0.57511563  0.68629198    -0.20100
F2207       F  0.71841854  0.59144703  0.69971736    -0.20500
F2208       F  0.70143312  0.54435629  0.71083471    -0.23100
C2209       C  0.52805596  0.65210714  0.65725546    -0.06000
C2210       C  0.54862905  0.67874865  0.66202832     0.00000
C2211       C  0.52730953  0.70436591  0.67201718    -0.08600
C2212       C  0.48604826  0.70380276  0.67006395    -0.06000
C2213       C  0.46575133  0.67855361  0.65924217    -0.00100
C2214       C  0.48688201  0.65137934  0.65628805    -0.08500
C2215       C  0.46688319  0.62185251  0.65026348     0.61900
H2216       H  0.54441482  0.63207154  0.65167182     0.12500
H2217       H  0.46964553  0.72410374  0.67419196     0.12600
C2218       C  0.54726453  0.73282877  0.68275476     0.62100
F2219       F  0.49102802  0.59817752  0.65918343    -0.23100
F2220       F  0.45770782  0.61917503  0.61778680    -0.20400
F2221       F  0.43309893  0.61985534  0.66828820    -0.20100
F2222       F  0.56587126  0.74611815  0.65693084    -0.20100
F2223       F  0.57426106  0.72636061  0.70707548    -0.20500
F2224       F  0.52073689  0.75323158  0.69488386    -0.23100
C2225       C  0.71473742  0.62656381  0.50735196    -0.06000
C2226       C  0.74097772  0.63468075  0.53219824     0.00000
C2227       C  0.77995210  0.62370736  0.53207967    -0.08600
C2228       C  0.79139023  0.60542842  0.50656403    -0.06000
C2229       C  0.76552586  0.59799154  0.48123025    -0.00100
C2230       C  0.72626041  0.60836851  0.48169574    -0.08500
C2231       C  0.69685155  0.60106397  0.45509766     0.61900
H2232       H  0.68478672  0.63459277  0.50835965     0.12500
H2233       H  0.82127297  0.59721901  0.50575041     0.12600
C2234       C  0.80932441  0.63063474  0.55881353     0.62100
F2235       F  0.66059553  0.61410473  0.46030749    -0.23100
F2236       F  0.69161532  0.57059332  0.45380116    -0.20400
F2237       F  0.71025000  0.61133093  0.42566656    -0.20100
F2238       F  0.84486435  0.61622051  0.55444418    -0.20100
F2239       F  0.79489494  0.62155826  0.58832515    -0.20500
F2240       F  0.81632208  0.66090195  0.55931511    -0.23100
loop_ 
_geom_bond_atom_site_label_1 
_geom_bond_atom_site_label_2 
_geom_bond_distance 
_geom_bond_site_symmetry_2 
_ccdc_geom_bond_type 
Fe1          O17   2.078       .  S
Fe1           O7   2.127       .  S
Fe1          O14   2.134       .  S
Fe1           O6   2.029       .  S
Fe1          O12   1.947       .  S
Fe2           O5   2.052       .  S
Fe2           O9   2.053       .  S
Fe2          O13   2.038       .  S
Fe2          O18   2.038       .  S
Fe2          O12   1.966       .  S
Fe3          O21   2.096       .  S
Fe3           O8   2.057       .  S
Fe3          O15   2.042       .  S
Fe3           O4   2.106       .  S
Fe3          O12   1.956       .  S
O4           C11   1.272       .  A
O5           C19   1.271       .  A
O6           C11   1.259       .  A
O7           C10   1.290       .  A
O8           C20   1.267       .  A
O9           C22   1.263       .  A
C10          O15   1.269       .  A
C10        C1029   1.500       .  S
C11        C1058   1.493       .  S
O13          C16   1.270       .  A
O14          C16   1.286       .  A
C16        C1045   1.504       .  S
O17          C22   1.266       .  A
O18          C20   1.262       .  A
C19          O21   1.277       .  A
C19        C1074   1.475       .  S
C20        C1106   1.463       .  S
C22        C1090   1.494       .  S
Fe23         O39   2.136       .  S
Fe23         O29   2.037   1_545  S
Fe23         O36   2.077       .  S
Fe23         O28   2.136       .  S
Fe23         O34   1.948       .  S
Fe24         O27   2.042       .  S
Fe24         O31   2.039       .  S
Fe24         O35   2.064       .  S
Fe24         O40   2.056       .  S
Fe24         O34   1.959       .  S
Fe25         O43   2.049       .  S
Fe25         O30   2.100       .  S
Fe25         O37   2.096       .  S
Fe25         O26   2.033       .  S
Fe25         O34   1.961       .  S
O26          C33   1.268       .  A
O27          C41   1.265       .  A
O28          C33   1.290       .  A
O29          C32   1.258       .  A
O30          C42   1.278       .  A
O31          C44   1.269       .  A
C32          O37   1.270   1_565  A
C32        C2101   1.490       .  S
C33         C946   1.489       .  S
O35          C38   1.265       .  A
O36          C38   1.268       .  A
C38        C1010   1.495       .  S
O39          C44   1.286       .  A
O40          C42   1.270       .  A
C41          O43   1.264       .  A
C41        C1109   1.462       .  S
C42         C962   1.487       .  S
C44         C994   1.512       .  S
Fe45         O61   2.128       .  S
Fe45         O51   2.040       .  S
Fe45         O58   2.072       .  S
Fe45         O50   2.126       .  S
Fe45         O56   1.948       .  S
Fe46         O49   2.025       .  S
Fe46         O53   2.058       .  S
Fe46         O57   2.056       .  S
Fe46         O62   2.070       .  S
Fe46         O56   1.972       .  S
Fe47         O65   2.041       .  S
Fe47         O52   2.086       .  S
Fe47         O59   2.085       .  S
Fe47         O48   2.032       .  S
Fe47         O56   1.957       .  S
O48          C55   1.272       .  A
O49          C63   1.262       .  A
O50          C55   1.292       .  A
O51          C54   1.257       .  A
O52          C64   1.275       .  A
O53          C66   1.271       .  A
C54          O59   1.265       .  A
C54         C901   1.487       .  S
C55         C866   1.491       .  S
O57          C60   1.262       .  A
O58          C60   1.266       .  A
C60        C1093   1.494       .  S
O61          C66   1.288       .  A
O62          C64   1.273       .  A
C63          O65   1.262       .  A
C63         C933   1.458       .  S
C64         C885   1.488       .  S
C66         C917   1.502       .  S
Fe67         O83   2.099       .  S
Fe67         O73   2.154       .  S
Fe67         O80   2.136       .  S
Fe67         O72   2.064       .  S
Fe67         O78   1.958       .  S
Fe68         O71   2.070       .  S
Fe68         O75   2.054       .  S
Fe68         O79   2.042       .  S
Fe68         O84   2.033       .  S
Fe68         O78   1.964       .  S
Fe69         O87   2.096       .  S
Fe69         O74   2.040       .  S
Fe69         O81   2.035       .  S
Fe69         O70   2.097       .  S
Fe69         O78   1.955       .  S
O70          C77   1.268       .  A
O71          C85   1.271       .  A
O72          C77   1.263       .  A
O73          C76   1.294       .  A
O74          C86   1.266       .  A
O75          C88   1.267       .  A
C76          O81   1.268       .  A
C76         C802   1.506       .  S
C77        C1957   1.489   1_545  S
O79          C82   1.264       .  A
O80          C82   1.284       .  A
C82         C818   1.511       .  S
O83          C88   1.275       .  A
O84          C86   1.265       .  A
C85          O87   1.275       .  A
C85         C850   1.494       .  S
C86         C930   1.466       .  S
C88        C1013   1.505       .  S
Fe89        O105   2.068       .  S
Fe89         O95   2.110       .  S
Fe89        O102   2.121       .  S
Fe89         O94   2.050       .  S
Fe89        O100   1.955       .  S
Fe90         O93   2.063       .  S
Fe90         O97   2.055       .  S
Fe90        O101   2.058       .  S
Fe90        O106   2.024       .  S
Fe90        O100   1.976       .  S
Fe91        O109   2.101       .  S
Fe91         O96   2.056       .  S
Fe91        O103   2.049       .  S
Fe91         O92   2.099       .  S
Fe91        O100   1.962       .  S
O92          C99   1.271       .  A
O93         C107   1.272       .  A
O94          C99   1.261       .  A
O95          C98   1.285       .  A
O96         C108   1.267       .  A
O97         C110   1.262       .  A
C98         O103   1.272       .  A
C98         C757   1.484       .  S
C99        C2002   1.496       .  S
O101        C104   1.270       .  A
O102        C104   1.287       .  A
C104        C821   1.504       .  S
O105        C110   1.265       .  A
O106        C108   1.257       .  A
C107        O109   1.279       .  A
C107        C898   1.488       .  S
C108        C786   1.461       .  S
C110        C770   1.488       .  S
Fe111       O127   2.128       .  S
Fe111       O117   2.040       .  S
Fe111       O124   2.071       .  S
Fe111       O116   2.123       .  S
Fe111       O122   1.959       .  S
Fe112       O115   2.026       .  S
Fe112       O119   2.062       .  S
Fe112       O123   2.048       .  S
Fe112       O128   2.075       .  S
Fe112       O122   1.966       .  S
Fe113       O131   2.068       .  S
Fe113       O118   2.102       .  S
Fe113       O125   2.115       .  S
Fe113       O114   2.051       .  S
Fe113       O122   1.964       .  S
O114        C121   1.272       .  A
O115        C129   1.257       .  A
O116        C121   1.291       .  A
O117        C120   1.257       .  A
O118        C130   1.277       .  A
O119        C132   1.274       .  A
C120        O125   1.272       .  A
C120        C853   1.501       .  S
C121        C725   1.501       .  S
O123        C126   1.259       .  A
O124        C126   1.264       .  A
C126        C741   1.494       .  S
O127        C132   1.286       .  A
O128        C130   1.274       .  A
C129        O131   1.273       .  A
C129        C789   1.468       .  S
C130        C834   1.492       .  S
C132        C914   1.498       .  S
Fe133       O149   2.108       .  S
Fe133       O139   2.050       .  S
Fe133       O146   2.070       .  S
Fe133       O138   2.109       .  S
Fe133       O144   1.955       .  S
Fe134       O137   2.027       .  S
Fe134       O141   2.056       .  S
Fe134       O145   2.056       .  S
Fe134       O150   2.080       .  S
Fe134       O144   1.972       .  S
Fe135       O153   2.076       .  S
Fe135       O140   2.073       .  S
Fe135       O147   2.090       .  S
Fe135       O136   2.053       .  S
Fe135       O144   1.959       .  S
O136        C143   1.274       .  A
O137        C151   1.262       .  A
O138        C143   1.283       .  A
O139        C142   1.262       .  A
O140        C152   1.274       .  A
O141        C154   1.270       .  A
C142        O147   1.268       .  A
C142       C2197   1.482       .  S
C143        C693   1.484       .  S
O145        C148   1.266       .  A
O146        C148   1.266       .  A
C148        C773   1.494       .  S
O149        C154   1.278       .  A
O150        C152   1.274       .  A
C151        O153   1.275       .  A
C151        C706   1.472       .  S
C152       C1061   1.499       .  S
C154        C997   1.513       .  S
Fe155       O171   2.061       .  S
Fe155       O161   2.111       .  S
Fe155       O168   2.124       .  S
Fe155       O160   2.033       .  S
Fe155       O166   1.953       .  S
Fe156       O159   2.075       .  S
Fe156       O163   2.062       .  S
Fe156       O167   2.058       .  S
Fe156       O172   2.036       .  S
Fe156       O166   1.971       .  S
Fe157       O175   2.083       .  S
Fe157       O162   2.054       .  S
Fe157       O169   2.033       .  S
Fe157       O158   2.099       .  S
Fe157       O166   1.957       .  S
O158        C165   1.271       .  A
O159        C173   1.275       .  A
O160        C165   1.258       .  A
O161        C164   1.285       .  A
O162        C174   1.265       .  A
O163        C176   1.263       .  A
C164        O169   1.270       .  A
C164        C674   1.486       .  S
C165        C965   1.493       .  S
O167        C170   1.274       .  A
O168        C170   1.288       .  A
C170       C1042   1.504       .  S
O171        C176   1.260       .  A
O172        C174   1.261       .  A
C173        O175   1.278       .  A
C173        C978   1.495       .  S
C174        C709   1.469       .  S
C176        C738   1.494       .  S
Fe177       O193   2.083       .  S
Fe177       O183   2.106       .  S
Fe177       O190   2.096       .  S
Fe177       O182   2.039       .  S
Fe177       O188   1.954       .  S
Fe178       O181   2.090       .  S
Fe178       O185   2.059       .  S
Fe178       O189   2.092       .  S
Fe178       O194   2.026       .  S
Fe178       O188   1.959       .  S
Fe179       O197   2.076       .  S
Fe179       O184   2.058       .  S
Fe179       O191   2.066       .  S
Fe179       O180   2.092       .  S
Fe179       O188   1.953       .  S
O180        C187   1.267       .  A
O181        C195   1.274       .  A
O182        C187   1.259       .  A
O183        C186   1.290       .  A
O184        C196   1.271       .  A
O185        C198   1.265       .  A
C186        O191   1.274       .  A
C186       C1026   1.495       .  S
C187        C610   1.496       .  S
O189        C192   1.277       .  A
O190        C192   1.278       .  A
C192        C594   1.502       .  S
O193        C198   1.265       .  A
O194        C196   1.264       .  A
C195        O197   1.271       .  A
C195        C626   1.502       .  S
C196        C661   1.463       .  S
C198        C642   1.504       .  S
Fe199       O215   2.138       .  S
Fe199       O205   2.047       .  S
Fe199       O212   2.087       .  S
Fe199       O204   2.151       .  S
Fe199       O210   1.950       .  S
Fe200       O203   2.060       .  S
Fe200       O207   2.035       .  S
Fe200       O211   2.065       .  S
Fe200       O216   2.065       .  S
Fe200       O210   1.956       .  S
Fe201       O219   2.038       .  S
Fe201       O206   2.080       .  S
Fe201       O213   2.092       .  S
Fe201       O202   2.022       .  S
Fe201       O210   1.948       .  S
O202        C209   1.264       .  A
O203        C217   1.270       .  A
O204        C209   1.293       .  A
O205        C208   1.261       .  A
O206        C218   1.275       .  A
O207        C220   1.265       .  A
C208        O213   1.268       .  A
C208       C1669   1.479   1_545  S
C209        C949   1.496       .  S
O211        C214   1.266       .  A
O212        C214   1.272       .  A
C214        C581   1.505       .  S
O215        C220   1.287       .  A
O216        C218   1.270       .  A
C217        O219   1.264       .  A
C217        C658   1.478       .  S
C218        C530   1.490       .  S
C220        C565   1.501       .  S
Fe221       O237   2.104       .  S
Fe221       O227   2.036       .  S
Fe221       O234   2.068       .  S
Fe221       O226   2.104       .  S
Fe221       O232   1.964       .  S
Fe222       O225   2.040       .  S
Fe222       O229   2.071       .  S
Fe222       O233   2.060       .  S
Fe222       O238   2.073       .  S
Fe222       O232   1.977       .  S
Fe223       O241   2.062       .  S
Fe223       O228   2.081       .  S
Fe223       O235   2.105       .  S
Fe223       O224   2.045       .  S
Fe223       O232   1.973       .  S
O224        C231   1.273       .  A
O225        C239   1.262       .  A
O226        C231   1.285       .  A
O227        C230   1.260       .  A
O228        C240   1.274       .  A
O229        C242   1.274       .  A
C230        O235   1.270       .  A
C230        C482   1.501       .  S
C231        C869   1.491       .  S
O233        C236   1.261       .  A
O234        C236   1.264       .  A
C236        C645   1.503       .  S
O237        C242   1.284       .  A
O238        C240   1.274       .  A
C239        O241   1.269       .  A
C239        C517   1.459       .  S
C240        C469   1.491       .  S
C242        C498   1.488       .  S
Fe243       O259   2.084       .  S
Fe243       O249   2.141       .  S
Fe243       O256   2.137       .  S
Fe243       O248   2.038   1_545  S
Fe243       O254   1.959       .  S
Fe244       O247   2.066       .  S
Fe244       O251   2.059       .  S
Fe244       O255   2.044       .  S
Fe244       O260   2.041       .  S
Fe244       O254   1.964       .  S
Fe245       O263   2.092       .  S
Fe245       O250   2.055       .  S
Fe245       O257   2.038       .  S
Fe245       O246   2.082       .  S
Fe245       O254   1.963       .  S
O246        C253   1.270   1_545  A
O247        C261   1.274       .  A
O248        C253   1.259       .  A
O249        C252   1.290       .  A
O250        C262   1.265       .  A
O251        C264   1.266       .  A
C252        O257   1.268       .  A
C252        C805   1.493       .  S
C253       C1554   1.486       .  S
O255        C258   1.270       .  A
O256        C258   1.287       .  A
C258        C418   1.518       .  S
O259        C264   1.268       .  A
O260        C262   1.262       .  A
C261        O263   1.276       .  A
C261        C450   1.486       .  S
C262        C514   1.452       .  S
C264        C578   1.503       .  S
Fe265       O281   2.058       .  S
Fe265       O271   2.127       .  S
Fe265       O278   2.124       .  S
Fe265       O270   2.042       .  S
Fe265       O276   1.949       .  S
Fe266       O269   2.076       .  S
Fe266       O273   2.083       .  S
Fe266       O277   2.050       .  S
Fe266       O282   2.060       .  S
Fe266       O276   1.958       .  S
Fe267       O285   2.089       .  S
Fe267       O272   2.057       .  S
Fe267       O279   2.036       .  S
Fe267       O268   2.107       .  S
Fe267       O276   1.951       .  S
O268        C275   1.271       .  A
O269        C283   1.273       .  A
O270        C275   1.261       .  A
O271        C274   1.286       .  A
O272        C284   1.273       .  A
O273        C286   1.273       .  A
C274        O279   1.271       .  A
C274        C754   1.493       .  S
C275       C1586   1.487       .  S
O277        C280   1.269       .  A
O278        C280   1.282       .  A
C280        C421   1.517       .  S
O281        C286   1.264       .  A
O282        C284   1.269       .  A
C283        O285   1.273       .  A
C283        C485   1.490       .  S
C284        C405   1.468       .  S
C286        C386   1.498       .  S
Fe287       O303   2.106       .  S
Fe287       O293   2.048       .  S
Fe287       O300   2.066       .  S
Fe287       O292   2.112       .  S
Fe287       O298   1.959       .  S
Fe288       O291   2.045       .  S
Fe288       O295   2.069       .  S
Fe288       O299   2.050       .  S
Fe288       O304   2.067       .  S
Fe288       O298   1.977       .  S
Fe289       O307   2.060       .  S
Fe289       O294   2.072       .  S
Fe289       O301   2.090       .  S
Fe289       O290   2.061       .  S
Fe289       O298   1.958       .  S
O290        C297   1.274       .  A
O291        C305   1.262       .  A
O292        C297   1.288       .  A
O293        C296   1.260       .  A
O294        C306   1.274       .  A
O295        C308   1.276       .  A
C296        O301   1.266       .  A
C296        C453   1.505       .  S
C297        C722   1.482       .  S
O299        C302   1.261       .  A
O300        C302   1.261       .  A
C302        C370   1.499       .  S
O303        C308   1.285       .  A
O304        C306   1.272       .  A
C305        O307   1.269       .  A
C305        C402   1.469       .  S
C306        C437   1.486       .  S
C308        C501   1.482       .  S
Fe309       O325   2.118       .  S
Fe309       O315   2.054       .  S
Fe309       O322   2.087       .  S
Fe309       O314   2.115       .  S
Fe309       O320   1.966       .  S
Fe310       O313   2.025       .  S
Fe310       O317   2.046       .  S
Fe310       O321   2.029       .  S
Fe310       O326   2.055       .  S
Fe310       O320   1.971       .  S
Fe311       O329   2.055       .  S
Fe311       O316   2.086       .  S
Fe311       O323   2.086       .  S
Fe311       O312   2.045       .  S
Fe311       O320   1.962       .  S
O312        C319   1.272       .  A
O313        C327   1.257       .  A
O314        C319   1.284       .  A
O315        C318   1.264       .  A
O316        C328   1.276       .  A
O317        C330   1.268       .  A
C318        O323   1.268       .  A
C318       C1749   1.492       .  S
C319        C690   1.506       .  S
O321        C324   1.255       .  A
O322        C324   1.267       .  A
C324        C389   1.491       .  S
O325        C330   1.288       .  A
O326        C328   1.271       .  A
C327        O329   1.265       .  A
C327        C354   1.451       .  S
C328        C613   1.475       .  S
C330        C562   1.496       .  S
Fe331       O347   2.063       .  S
Fe331       O337   2.114       .  S
Fe331       O344   2.125       .  S
Fe331       O336   2.041       .  S
Fe331       O342   1.940       .  S
Fe332       O335   2.060       .  S
Fe332       O339   2.066       .  S
Fe332       O343   2.043       .  S
Fe332       O348   2.039       .  S
Fe332       O342   1.952       .  S
Fe333       O351   2.089       .  S
Fe333       O338   2.057       .  S
Fe333       O345   2.032       .  S
Fe333       O334   2.111       .  S
Fe333       O342   1.959       .  S
O334        C341   1.271       .  A
O335        C349   1.270       .  A
O336        C341   1.258       .  A
O337        C340   1.284       .  A
O338        C350   1.273       .  A
O339        C352   1.268       .  A
C340        O345   1.270       .  A
C340        C677   1.483       .  S
C341        C533   1.492       .  S
O343        C346   1.267       .  A
O344        C346   1.282       .  A
C346        C597   1.511       .  S
O347        C352   1.267       .  A
O348        C350   1.266       .  A
C349        O351   1.273       .  A
C349        C546   1.479       .  S
C350        C357   1.450       .  S
C352        C373   1.489       .  S
C353        C354   1.401       .  A
C353        C358   1.398       .  A
C353        H360   1.084       .  S
C354        C355   1.415   1_556  A
C355        C356   1.397       .  A
C355        C362   1.517       .  S
C356        C357   1.399       .  A
C356        H361   1.085       .  S
C357        C358   1.413   1_554  A
C358        C359   1.518       .  S
C359        F363   1.385       .  S
C359        F364   1.384   1_556  S
C359        F365   1.382   1_556  S
C362        F366   1.382       .  S
C362        F367   1.382   1_554  S
C362        F368   1.384       .  S
C369        C370   1.410       .  A
C369        C374   1.405   1_455  A
C369        H376   1.085       .  S
C370        C371   1.427       .  A
C371        C372   1.410   1_455  A
C371        C378   1.520       .  S
C372        C373   1.404       .  A
C372        H377   1.083       .  S
C373        C374   1.415       .  A
C374        C375   1.516       .  S
C375        F379   1.384       .  S
C375        F380   1.384       .  S
C375        F381   1.383       .  S
C378        F382   1.384       .  S
C378        F383   1.383       .  S
C378        F384   1.385       .  S
C385        C386   1.405       .  A
C385        C390   1.406       .  A
C385        H392   1.083       .  S
C386        C387   1.429       .  A
C387        C388   1.412       .  A
C387        C394   1.521       .  S
C388        C389   1.402       .  A
C388        H393   1.082       .  S
C389        C390   1.421       .  A
C390        C391   1.518       .  S
C391        F395   1.385       .  S
C391        F396   1.383       .  S
C391        F397   1.384       .  S
C394        F398   1.383       .  S
C394        F399   1.383       .  S
C394        F400   1.385       .  S
C401        C402   1.403       .  A
C401        C406   1.400       .  A
C401        H408   1.084       .  S
C402        C403   1.421   1_554  A
C403        C404   1.401       .  A
C403        C410   1.518       .  S
C404        C405   1.400       .  A
C404        H409   1.085       .  S
C405        C406   1.415   1_556  A
C406        C407   1.520       .  S
C407        F411   1.385       .  S
C407        F412   1.383       .  S
C407        F413   1.382   1_554  S
C410        F414   1.383       .  S
C410        F415   1.378   1_556  S
C410        F416   1.384       .  S
C417        C418   1.417       .  A
C417       C1542   1.416   1_554  A
C417        H424   1.082       .  S
C418        C419   1.421   1_545  A
C419       C1540   1.417       .  A
C419        C426   1.519       .  S
C420        C421   1.415   1_554  A
C420       C1539   1.414       .  A
C420        H425   1.081   1_554  S
C421        C422   1.421       .  A
C422       C1537   1.416   1_556  A
C422        C423   1.519       .  S
C423        F428   1.383       .  S
C423        F429   1.384       .  S
C423       F1547   1.385       .  S
C426        F430   1.383       .  S
C426        F431   1.383       .  S
C426       F1552   1.384       .  S
F427       C1543   1.385       .  S
F432       C1546   1.384       .  S
C433        C434   1.405       .  A
C433        C438   1.412       .  A
C433       H1560   1.082       .  S
C434       C1373   1.488       .  S
C434        C435   1.425       .  A
C435        C436   1.403       .  A
C435        C442   1.524       .  S
C436        C437   1.401       .  A
C436        H441   1.083       .  S
C437        C438   1.421       .  A
C438        C439   1.518       .  S
C439        F443   1.385       .  S
C439        F444   1.383       .  S
C439        F445   1.383       .  S
H440       C1553   1.082       .  S
C442        F446   1.380       .  S
C442        F447   1.383       .  S
C442        F448   1.385       .  S
C449        C450   1.407       .  A
C449        C454   1.416       .  A
C449        H456   1.083       .  S
C450        C451   1.411       .  A
C451        C452   1.406       .  A
C451        C458   1.520       .  S
C452        C453   1.413       .  A
C452        H457   1.080       .  S
C453        C454   1.422       .  A
C454        C455   1.516       .  S
C455        F459   1.384       .  S
C455        F460   1.383       .  S
C455        F461   1.383       .  S
C458        F462   1.384       .  S
C458        F463   1.382       .  S
C458        F464   1.385       .  S
C465        C466   1.407       .  A
C465        C470   1.405       .  A
C465        H472   1.084       .  S
C466       C1395   1.490   1_545  S
C466        C467   1.415       .  A
C467        C468   1.417       .  A
C467       C1594   1.514       .  S
C468        C469   1.411       .  A
C468        H473   1.082       .  S
C469        C470   1.416       .  A
C470        C471   1.518       .  S
C471        F475   1.385       .  S
C471        F476   1.382       .  S
C471        F477   1.384       .  S
C474       C1587   1.515       .  S
C474        F478   1.383       .  S
C474        F479   1.383       .  S
C474       F1600   1.384       .  S
F480       C1594   1.385       .  S
C481        C482   1.411       .  A
C481        C486   1.406       .  A
C481        H488   1.083       .  S
C482        C483   1.417       .  A
C483        C484   1.420       .  A
C483        C490   1.514       .  S
C484        C485   1.411       .  A
C484        H489   1.083       .  S
C485        C486   1.414       .  A
C486        C487   1.521       .  S
C487        F491   1.385       .  S
C487        F492   1.383       .  S
C487        F493   1.382       .  S
C490        F494   1.383       .  S
C490        F495   1.379       .  S
C490        F496   1.384       .  S
C497        C498   1.411       .  A
C497        C502   1.420   1_556  A
C497        H504   1.083       .  S
C498        C499   1.417       .  A
C499        C500   1.403   1_556  A
C499        C506   1.518       .  S
C500        C501   1.399       .  A
C500        H505   1.085       .  S
C501        C502   1.415       .  A
C502        C503   1.513       .  S
C503        F507   1.385       .  S
C503        F508   1.383       .  S
C503        F509   1.383       .  S
C506        F510   1.381       .  S
C506        F511   1.382       .  S
C506        F512   1.385       .  S
C513        C514   1.402       .  A
C513        C518   1.401       .  A
C513        H520   1.084       .  S
C514        C515   1.412       .  A
C515        C516   1.400   1_554  A
C515        C522   1.518   1_554  S
C516        C517   1.403       .  A
C516        H521   1.085       .  S
C517        C518   1.412   1_556  A
C518        C519   1.517       .  S
C519        F523   1.385       .  S
C519        F524   1.382       .  S
C519        F525   1.381       .  S
C522        F526   1.383   1_556  S
C522        F527   1.382       .  S
C522        F528   1.384       .  S
C529        C530   1.398       .  A
C529        C534   1.401       .  A
C529        H536   1.083       .  S
C530        C531   1.423       .  A
C531        C532   1.418       .  A
C531        C538   1.517       .  S
C532        C533   1.405       .  A
C532        H537   1.082       .  S
C533        C534   1.426       .  A
C534        C535   1.522       .  S
C535        F539   1.385       .  S
C535        F540   1.378       .  S
C535        F541   1.381       .  S
C538        F542   1.383       .  S
C538        F543   1.382       .  S
C538        F544   1.384       .  S
C545        C546   1.409       .  A
C545        C550   1.413       .  A
C545        H552   1.083       .  S
C546        C547   1.413       .  A
C547        C548   1.404       .  A
C547        C554   1.517       .  S
C548        C549   1.404       .  A
C548        H553   1.084       .  S
C549       C1328   1.477       .  S
C549        C550   1.412       .  A
C550        C551   1.515       .  S
C551        F555   1.385       .  S
C551        F557   1.383       .  S
C551       F1676   1.383       .  S
C554        F558   1.383       .  S
C554        F559   1.383       .  S
C554        F560   1.385       .  S
F556       C1671   1.382   1_545  S
C561        C566   1.404       .  A
C561       C1682   1.396       .  A
C561        H568   1.084       .  S
C562        C563   1.426       .  A
C562       C1681   1.399       .  A
C563        C564   1.416   1_556  A
C563        C570   1.519       .  S
C564       C1685   1.405       .  A
C564        H569   1.084       .  S
C565        C566   1.430   1_554  A
C565       C1684   1.406       .  A
C566        C567   1.520   1_556  S
C567        F571   1.385   1_554  S
C567        F572   1.381       .  S
C567        F573   1.382       .  S
C570        F574   1.381       .  S
C570        F575   1.383       .  S
C570        F576   1.385   1_556  S
C577        C578   1.407       .  A
C577        C582   1.409       .  A
C577        H584   1.083       .  S
C578        C579   1.424       .  A
C579        C580   1.415       .  A
C579        C586   1.519       .  S
C580        C581   1.409       .  A
C580        H585   1.082       .  S
C581        C582   1.425       .  A
C582        C583   1.521       .  S
C583        F587   1.385       .  S
C583        F588   1.383       .  S
C583        F589   1.384       .  S
C586        F590   1.383       .  S
C586        F591   1.383       .  S
C586        F592   1.385   1_545  S
C593        C594   1.408       .  A
C593        C598   1.413   1_556  A
C593        H600   1.079       .  S
C594        C595   1.416       .  A
C595        C596   1.416   1_556  A
C595        C602   1.517       .  S
C596        C597   1.416       .  A
C596        H601   1.082       .  S
C597        C598   1.422       .  A
C598        C599   1.518       .  S
C599        F603   1.385       .  S
C599        F604   1.381       .  S
C599        F605   1.383       .  S
C602        F606   1.382       .  S
C602        F607   1.383       .  S
C602        F608   1.385       .  S
C609        C610   1.413       .  A
C609        C614   1.404       .  A
C609        H616   1.083       .  S
C610        C611   1.420       .  A
C611        C612   1.412       .  A
C611        C618   1.515       .  S
C612        C613   1.405       .  A
C612        H617   1.083       .  S
C613        C614   1.408       .  A
C614        C615   1.520       .  S
C615        F619   1.385       .  S
C615        F620   1.382       .  S
C615        F621   1.383       .  S
C618        F622   1.382       .  S
C618        F623   1.383       .  S
C618        F624   1.385       .  S
C625        C626   1.412       .  A
C625        C630   1.421       .  A
C625        H632   1.083       .  S
C626        C627   1.418       .  A
C627        C628   1.410       .  A
C627        C634   1.521       .  S
C628        C629   1.410       .  A
C628        H633   1.083       .  S
C629       C1438   1.506       .  S
C629        C630   1.421       .  A
C630       C1751   1.518       .  S
C631       C1750   1.517       .  S
C631        F636   1.382       .  S
C631        F637   1.384       .  S
C631       F1755   1.383       .  S
C634        F638   1.384       .  S
C634        F639   1.382       .  S
C634        F640   1.385       .  S
F635       C1751   1.384       .  S
C641        C642   1.408       .  A
C641        C646   1.408   1_655  A
C641        H648   1.083       .  S
C642        C643   1.426       .  A
C643        C644   1.412   1_655  A
C643        C650   1.521       .  S
C644        C645   1.409       .  A
C644        H649   1.082       .  S
C645        C646   1.422       .  A
C646        C647   1.518       .  S
C647        F651   1.385       .  S
C647        F652   1.383       .  S
C647        F653   1.384       .  S
C650        F654   1.383       .  S
C650        F655   1.384       .  S
C650        F656   1.385       .  S
C657        C658   1.412       .  A
C657        C662   1.393       .  A
C657        H664   1.082       .  S
C658        C659   1.421       .  A
C659        C660   1.399   1_554  A
C659        C666   1.523       .  S
C660        C661   1.405       .  A
C660        H665   1.082       .  S
C661        C662   1.406   1_556  A
C662        C663   1.516       .  S
C663        F667   1.385       .  S
C663        F668   1.383   1_554  S
C663        F669   1.381   1_554  S
C666        F670   1.385       .  S
C666        F671   1.381       .  S
C666        F672   1.383       .  S
C673        C674   1.413       .  A
C673        C678   1.406       .  A
C673        H680   1.083       .  S
C674        C675   1.411       .  A
C675        C676   1.409       .  A
C675        C682   1.517       .  S
C676        C677   1.412       .  A
C676        H681   1.083       .  S
C677        C678   1.410       .  A
C678        C679   1.519       .  S
C679        F683   1.385       .  S
C679        F684   1.383       .  S
C679        F685   1.382       .  S
C682        F686   1.383       .  S
C682        F687   1.383       .  S
C682        F688   1.385       .  S
C689        C690   1.418       .  A
C689        C694   1.407       .  A
C689        H696   1.082       .  S
C690        C691   1.421       .  A
C691        C692   1.415       .  A
C691        C698   1.518       .  S
C692        C693   1.408       .  A
C692        H697   1.083       .  S
C693        C694   1.407       .  A
C694        C695   1.518       .  S
C695        F699   1.384       .  S
C695        F700   1.383       .  S
C695        F701   1.383       .  S
C698        F702   1.384       .  S
C698        F703   1.383       .  S
C698        F704   1.385       .  S
C705        C706   1.414       .  A
C705        C710   1.401       .  A
C705        H712   1.081       .  S
C706        C707   1.407       .  A
C707        C708   1.399       .  A
C707        C714   1.519       .  S
C708        C709   1.410       .  A
C708        H713   1.080       .  S
C709        C710   1.408       .  A
C710        C711   1.521       .  S
C711        F715   1.385       .  S
C711        F716   1.383       .  S
C711        F717   1.384       .  S
C714        F718   1.384       .  S
C714        F719   1.383       .  S
C714        F720   1.385       .  S
C721        C722   1.400       .  A
C721        C726   1.414       .  A
C721        H728   1.083       .  S
C722        C723   1.415       .  A
C723        C724   1.407       .  A
C723        C730   1.512       .  S
C724        C725   1.404       .  A
C724        H729   1.081       .  S
C725        C726   1.431       .  A
C726        C727   1.521       .  S
C727        F731   1.385       .  S
C727        F732   1.383       .  S
C727        F733   1.383       .  S
C730        F734   1.381       .  S
C730        F735   1.382       .  S
C730        F736   1.384       .  S
C737        C738   1.406       .  A
C737        C742   1.407       .  A
C737        H744   1.084       .  S
C738        C739   1.425       .  A
C739        C740   1.411       .  A
C739        C746   1.521       .  S
C740        C741   1.406       .  A
C740        H745   1.082       .  S
C741        C742   1.419       .  A
C742        C743   1.517       .  S
C743        F747   1.384       .  S
C743        F748   1.383       .  S
C743        F749   1.385       .  S
C746        F750   1.383       .  S
C746        F751   1.384       .  S
C746        F752   1.385       .  S
C753        C754   1.413       .  A
C753        C758   1.407       .  A
C753        H760   1.083       .  S
C754        C755   1.416       .  A
C755        C756   1.412       .  A
C755        C762   1.518       .  S
C756        C757   1.410       .  A
C756        H761   1.083       .  S
C757        C758   1.409       .  A
C758        C759   1.518       .  S
C759        F763   1.385       .  S
C759        F764   1.384       .  S
C759        F765   1.382       .  S
C762        F766   1.384       .  S
C762        F767   1.383       .  S
C762        F768   1.385       .  S
C769        C770   1.403       .  A
C769        C774   1.409   1_455  A
C769        H776   1.082       .  S
C770        C771   1.416       .  A
C771        C772   1.405   1_455  A
C771        C778   1.516       .  S
C772        C773   1.409       .  A
C772        H777   1.084       .  S
C773        C774   1.425       .  A
C774        C775   1.520       .  S
C775        F779   1.385       .  S
C775        F780   1.383       .  S
C775        F781   1.383       .  S
C778        F782   1.384       .  S
C778        F783   1.383       .  S
C778        F784   1.385       .  S
C785        C786   1.396       .  A
C785        C790   1.396       .  A
C785        H792   1.083       .  S
C786        C787   1.418       .  A
C787        C788   1.399       .  A
C787        C794   1.521       .  S
C788        C789   1.401       .  A
C788        H793   1.083       .  S
C789        C790   1.426       .  A
C790        C791   1.522       .  S
C791        F795   1.385       .  S
C791        F796   1.383       .  S
C791        F797   1.377       .  S
C794        F798   1.384       .  S
C794        F799   1.382       .  S
C794        F800   1.385       .  S
C801        C802   1.400       .  A
C801        C806   1.414       .  A
C801        H808   1.082       .  S
C802        C803   1.437       .  A
C803        C804   1.412       .  A
C803        C810   1.521       .  S
C804        C805   1.393       .  A
C804        H809   1.082       .  S
C805        C806   1.428       .  A
C806        C807   1.520       .  S
C807        F811   1.385       .  S
C807        F812   1.378   1_545  S
C807        F813   1.381       .  S
C810        F814   1.379       .  S
C810        F815   1.383       .  S
C810        F816   1.385       .  S
C817        C822   1.420       .  A
C817       C1938   1.408       .  A
C817        H824   1.084       .  S
C818        C819   1.433       .  A
C818       C1937   1.407   1_545  A
C819        C820   1.402       .  A
C819        C826   1.513       .  S
C820       C1941   1.393   1_545  A
C820        H825   1.083       .  S
C821        C822   1.426       .  A
C821       C1940   1.399       .  A
C822        C823   1.516       .  S
C823        F827   1.384       .  S
C823        F828   1.382       .  S
C823        F829   1.382       .  S
C826        F830   1.381       .  S
C826        F831   1.385       .  S
C826        F832   1.379       .  S
C833        C834   1.408       .  A
C833        C838   1.408       .  A
C833        H840   1.084       .  S
C834        C835   1.421       .  A
C835        C836   1.417       .  A
C835        C842   1.516       .  S
C836        C837   1.408       .  A
C836        H841   1.084       .  S
C837       C1197   1.490       .  S
C837        C838   1.415       .  A
C838       C1959   1.519       .  S
C839       C1958   1.516       .  S
C839        F843   1.385       .  S
C839        F844   1.382       .  S
C839        F845   1.384   1_565  S
C842        F846   1.384       .  S
C842        F847   1.380       .  S
C842        F848   1.383       .  S
C849        C850   1.395       .  A
C849        C854   1.404       .  A
C849        H856   1.084       .  S
C850        C851   1.428       .  A
C851        C852   1.420       .  A
C851        C858   1.514       .  S
C852        C853   1.402       .  A
C852        H857   1.083       .  S
C853        C854   1.426       .  A
C854        C855   1.513       .  S
C855        F859   1.385       .  S
C855        F860   1.382       .  S
C855        F861   1.377       .  S
C858        F862   1.376       .  S
C858        F863   1.382       .  S
C858        F864   1.385       .  S
C865        C866   1.416       .  A
C865        C870   1.409       .  A
C865        H872   1.083       .  S
C866        C867   1.410       .  A
C867        C868   1.407       .  A
C867        C874   1.517       .  S
C868        C869   1.415       .  A
C868        H873   1.083       .  S
C869        C870   1.412       .  A
C870        C871   1.520       .  S
C871        F875   1.385       .  S
C871        F876   1.382       .  S
C871        F877   1.384       .  S
C874        F878   1.382       .  S
C874        F879   1.384       .  S
C874        F880   1.385       .  S
C881        C882   1.405       .  A
C881        C886   1.416       .  A
C881        H888   1.083       .  S
C882       C1219   1.494       .  S
C882        C883   1.426       .  A
C883        C884   1.405       .  A
C883        C890   1.522       .  S
C884        C885   1.399       .  A
C884        H889   1.083       .  S
C885        C886   1.422       .  A
C886        C887   1.517       .  S
C887        F891   1.385       .  S
C887        F892   1.382       .  S
C887        F893   1.381       .  S
C890        F894   1.381       .  S
C890        F895   1.382       .  S
C890        F896   1.385       .  S
C897        C898   1.400       .  A
C897        C902   1.406       .  A
C897        H904   1.083       .  S
C898        C899   1.424       .  A
C899        C900   1.414       .  A
C899        C906   1.516       .  S
C900        C901   1.401       .  A
C900        H905   1.083       .  S
C901        C902   1.422       .  A
C902        C903   1.520       .  S
C903        F907   1.385       .  S
C903        F908   1.382       .  S
C903        F909   1.383       .  S
C906        F910   1.380       .  S
C906        F911   1.383       .  S
C906        F912   1.385       .  S
C913        C914   1.403       .  A
C913        C918   1.409       .  A
C913        H920   1.082       .  S
C914        C915   1.415       .  A
C915        C916   1.424       .  A
C915        C922   1.514       .  S
C916        C917   1.415       .  A
C916        H921   1.082       .  S
C917        C918   1.420       .  A
C918        C919   1.519       .  S
C919        F923   1.382       .  S
C919        F924   1.382       .  S
C919        F925   1.385       .  S
C922        F926   1.384       .  S
C922        F927   1.383       .  S
C922        F928   1.383       .  S
C929        C930   1.408       .  A
C929        C934   1.391       .  A
C929        H936   1.075       .  S
C930        C931   1.414       .  A
C931        C932   1.396       .  A
C931        C938   1.521       .  S
C932        C933   1.407       .  A
C932        H937   1.083       .  S
C933        C934   1.411       .  A
C934        C935   1.524       .  S
C935        F939   1.385       .  S
C935        F940   1.383       .  S
C935        F941   1.383       .  S
C938        F942   1.384       .  S
C938        F943   1.385       .  S
C938        F944   1.383       .  S
C945        C946   1.394       .  A
C945        C950   1.410       .  A
C945        H952   1.082       .  S
C946        C947   1.428       .  A
C947        C948   1.411       .  A
C947        C954   1.520       .  S
C948        C949   1.397       .  A
C948        H953   1.082       .  S
C949        C950   1.435       .  A
C950        C951   1.523       .  S
C951        F955   1.385       .  S
C951        F956   1.383       .  S
C951        F957   1.379       .  S
C954        F958   1.382       .  S
C954        F959   1.379       .  S
C954        F960   1.385       .  S
C961        C962   1.397       .  A
C961        C966   1.403       .  A
C961        H968   1.084       .  S
C962        C963   1.423       .  A
C963        C964   1.416       .  A
C963        C970   1.517       .  S
C964        C965   1.404       .  A
C964        H969   1.083       .  S
C965        C966   1.427       .  A
C966        C967   1.521       .  S
C967        F971   1.382       .  S
C967        F972   1.385       .  S
C967        F973   1.382       .  S
C970        F974   1.383       .  S
C970        F975   1.382       .  S
C970        F976   1.385       .  S
C977        C978   1.400       .  A
C977        C982   1.402       .  A
C977        H984   1.083       .  S
C978        C979   1.423       .  A
C979        C980   1.420       .  A
C979        C986   1.517       .  S
C980        C981   1.408       .  A
C980       H2105   1.083       .  S
C981       C1152   1.500       .  S
C981        C982   1.429       .  A
C982        C983   1.524       .  S
C983        F987   1.385       .  S
C983        F988   1.383       .  S
C983        F989   1.380       .  S
H985       C2100   1.083       .  S
C986        F990   1.381       .  S
C986        F991   1.383       .  S
C986        F992   1.384       .  S
C993        C994   1.417       .  A
C993        C998   1.413       .  A
C993       H1000   1.082       .  S
C994       C2115   1.422   1_545  A
C995        C996   1.414       .  A
C995       C2114   1.422       .  A
C995       C1002   1.520       .  S
C996        C997   1.415       .  A
C996       H1001   1.081       .  S
C997       C2118   1.422       .  A
C998       C2117   1.414   1_545  A
C998        C999   1.518       .  S
C999       F1003   1.385       .  S
C999       F1004   1.384       .  S
C999       F2125   1.382       .  S
C1002      F1007   1.381       .  S
C1002      F1008   1.385       .  S
C1002      F2126   1.383       .  S
F1005      C2119   1.383       .  S
F1006      C2122   1.383       .  S
C1009      C1010   1.406       .  A
C1009      C1014   1.415   1_655  A
C1009      H1016   1.082       .  S
C1010      C1011   1.417       .  A
C1011      C1012   1.410   1_655  A
C1011      C1018   1.518       .  S
C1012      C1013   1.412       .  A
C1012      H1017   1.083       .  S
C1013      C1014   1.425       .  A
C1014      C1015   1.518       .  S
C1015      F1019   1.385   1_545  S
C1015      F1020   1.383   1_545  S
C1015      F1021   1.383       .  S
C1018      F1022   1.383       .  S
C1018      F1023   1.384       .  S
C1018      F1024   1.384       .  S
C1025      C1026   1.398       .  A
C1025      C1030   1.411       .  A
C1025      H1032   1.083       .  S
C1026      C1027   1.429       .  A
C1027      C1028   1.409       .  A
C1027      C1034   1.521       .  S
C1028      C1029   1.399       .  A
C1028      H1033   1.083       .  S
C1029      C1030   1.434       .  A
C1030      C1031   1.522       .  S
C1031      F1035   1.386       .  S
C1031      F1036   1.379       .  S
C1031      F1037   1.382       .  S
C1034      F1038   1.381       .  S
C1034      F1039   1.383       .  S
C1034      F1040   1.385       .  S
C1041      C1042   1.414       .  A
C1041      C1046   1.419       .  A
C1041      H1048   1.083       .  S
C1042      C1043   1.421       .  A
C1043      C1044   1.408       .  A
C1043      C1050   1.519       .  S
C1044      C1045   1.410       .  A
C1044      H1049   1.083       .  S
C1045      C1046   1.417       .  A
C1046      C1047   1.515       .  S
C1047      F1051   1.384       .  S
C1047      F1052   1.382       .  S
C1047      F1053   1.383       .  S
C1050      F1054   1.381       .  S
C1050      F1055   1.383       .  S
C1050      F1056   1.385       .  S
C1057      C1058   1.411       .  A
C1057      C1062   1.421       .  A
C1057      H1064   1.083       .  S
C1058      C1059   1.419       .  A
C1059      C1060   1.398       .  A
C1059      C1066   1.521       .  S
C1060      C1061   1.408       .  A
C1060      H1065   1.085       .  S
C1061      C1062   1.419       .  A
C1062      C1063   1.516       .  S
C1063      F1067   1.385       .  S
C1063      F1068   1.383       .  S
C1063      F1069   1.382       .  S
C1066      F1070   1.382       .  S
C1066      F1071   1.384       .  S
C1066      F1072   1.383       .  S
C1073      C1074   1.408       .  A
C1073      C1078   1.413       .  A
C1073      H1080   1.084       .  S
C1074      C1075   1.408       .  A
C1075      C1076   1.404       .  A
C1075      C1082   1.517       .  S
C1076      C1077   1.412       .  A
C1076      H1081   1.084       .  S
C1077      C1262   1.489   1_545  S
C1077      C1078   1.415       .  A
C1078      C2199   1.516       .  S
C1079      C2198   1.517       .  S
C1079      F1084   1.383       .  S
C1079      F1085   1.382       .  S
C1079      F2203   1.383       .  S
C1082      F1086   1.383       .  S
C1082      F1087   1.382       .  S
C1082      F1088   1.385       .  S
F1083      C2199   1.385       .  S
C1089      C1090   1.408       .  A
C1089      C1094   1.409       .  A
C1089      H1096   1.084       .  S
C1090      C1091   1.422       .  A
C1091      C1092   1.411       .  A
C1091      C1098   1.520       .  S
C1092      C1093   1.407       .  A
C1092      H1097   1.082       .  S
C1093      C1094   1.419       .  A
C1094      C1095   1.518       .  S
C1095      F1099   1.385       .  S
C1095      F1100   1.383       .  S
C1095      F1101   1.384       .  S
C1098      F1102   1.383       .  S
C1098      F1103   1.383       .  S
C1098      F1104   1.384       .  S
C1105      C1106   1.406       .  A
C1105      C1110   1.400       .  A
C1105      H1112   1.084       .  S
C1106      C1107   1.413       .  A
C1107      C1108   1.396       .  A
C1107      C1114   1.519       .  S
C1108      C1109   1.403       .  A
C1108      H1113   1.084       .  S
C1109      C1110   1.414       .  A
C1110      C1111   1.521       .  S
C1111      F1115   1.385       .  S
C1111      F1116   1.383       .  S
C1111      F1117   1.383       .  S
C1114      F1118   1.385       .  S
C1114      F1119   1.382       .  S
C1114      F1120   1.383       .  S
Fe1121     O1137   2.064       .  S
Fe1121     O1127   2.122       .  S
Fe1121     O1134   2.126       .  S
Fe1121     O1126   2.025       .  S
Fe1121     O1132   1.949       .  S
Fe1122     O1125   2.067       .  S
Fe1122     O1129   2.065       .  S
Fe1122     O1133   2.041       .  S
Fe1122     O1138   2.052       .  S
Fe1122     O1132   1.956       .  S
Fe1123     O1141   2.098       .  S
Fe1123     O1128   2.067       .  S
Fe1123     O1135   2.046       .  S
Fe1123     O1124   2.113       .  S
Fe1123     O1132   1.953       .  S
O1124      C1131   1.273       .  A
O1125      C1139   1.271       .  A
O1126      C1131   1.257       .  A
O1127      C1130   1.285       .  A
O1128      C1140   1.273       .  A
O1129      C1142   1.268       .  A
C1130      O1135   1.274       .  A
C1130      C2149   1.508       .  S
C1131      C2178   1.495       .  S
O1133      C1136   1.269       .  A
O1134      C1136   1.283       .  A
C1136      C2165   1.502       .  S
O1137      C1142   1.264       .  A
O1138      C1140   1.268       .  A
C1139      O1141   1.275       .  A
C1139      C2194   1.485       .  S
C1140      C2226   1.473       .  S
C1142      C2210   1.494       .  S
Fe1143     O1159   2.122       .  S
Fe1143     O1149   2.043       .  S
Fe1143     O1156   2.077       .  S
Fe1143     O1148   2.125       .  S
Fe1143     O1154   1.952       .  S
Fe1144     O1147   2.045       .  S
Fe1144     O1151   2.048       .  S
Fe1144     O1155   2.065       .  S
Fe1144     O1160   2.062       .  S
Fe1144     O1154   1.960       .  S
Fe1145     O1163   2.062       .  S
Fe1145     O1150   2.096       .  S
Fe1145     O1157   2.106       .  S
Fe1145     O1146   2.035       .  S
Fe1145     O1154   1.960       .  S
O1146      C1153   1.267       .  A
O1147      C1161   1.265       .  A
O1148      C1153   1.287       .  A
O1149      C1152   1.259       .  A
O1150      C1162   1.278       .  A
O1151      C1164   1.271       .  A
C1152      O1157   1.273       .  A
C1153      C2066   1.489       .  S
O1155      C1158   1.265       .  A
O1156      C1158   1.268       .  A
C1158      C2130   1.493       .  S
O1159      C1164   1.283       .  A
O1160      C1162   1.271       .  A
C1161      O1163   1.268       .  A
C1161      C2229   1.474       .  S
C1162      C2082   1.490       .  S
C1164      C2114   1.513       .  S
Fe1165     O1181   2.117       .  S
Fe1165     O1171   2.036       .  S
Fe1165     O1178   2.069       .  S
Fe1165     O1170   2.116       .  S
Fe1165     O1176   1.956       .  S
Fe1166     O1169   2.017       .  S
Fe1166     O1173   2.073       .  S
Fe1166     O1177   2.052       .  S
Fe1166     O1182   2.079       .  S
Fe1166     O1176   1.977       .  S
Fe1167     O1185   2.052       .  S
Fe1167     O1172   2.087       .  S
Fe1167     O1179   2.092       .  S
Fe1167     O1168   2.043       .  S
Fe1167     O1176   1.961       .  S
O1168      C1175   1.275       .  A
O1169      C1183   1.261       .  A
O1170      C1175   1.288       .  A
O1171      C1174   1.256       .  A
O1172      C1184   1.274       .  A
O1173      C1186   1.272       .  A
C1174      O1179   1.267       .  A
C1174      C2021   1.495       .  S
C1175      C1986   1.499       .  S
O1177      C1180   1.261       .  A
O1178      C1180   1.265       .  A
C1180      C2213   1.495       .  S
O1181      C1186   1.285       .  A
O1182      C1184   1.274       .  A
C1183      O1185   1.266       .  A
C1183      C2053   1.469       .  S
C1184      C2005   1.494       .  S
C1186      C2037   1.504       .  S
Fe1187     O1203   2.080       .  S
Fe1187     O1193   2.157       .  S
Fe1187     O1200   2.144       .  S
Fe1187     O1192   2.035       .  S
Fe1187     O1198   1.950       .  S
Fe1188     O1191   2.079       .  S
Fe1188     O1195   2.068       .  S
Fe1188     O1199   2.050       .  S
Fe1188     O1204   2.031       .  S
Fe1188     O1198   1.956       .  S
Fe1189     O1207   2.097       .  S
Fe1189     O1194   2.052       .  S
Fe1189     O1201   2.030       .  S
Fe1189     O1190   2.116       .  S
Fe1189     O1198   1.949       .  S
O1190      C1197   1.273       .  A
O1191      C1205   1.275       .  A
O1192      C1197   1.258       .  A
O1193      C1196   1.293       .  A
O1194      C1206   1.268       .  A
O1195      C1208   1.269       .  A
C1196      O1201   1.265       .  A
C1196      C1922   1.504       .  S
O1199      C1202   1.266       .  A
O1200      C1202   1.287       .  A
C1202      C1938   1.518       .  S
O1203      C1208   1.270       .  A
O1204      C1206   1.264       .  A
C1205      O1207   1.278       .  A
C1205      C1970   1.504       .  S
C1206      C2050   1.472       .  S
C1208      C2133   1.499       .  S
Fe1209     O1225   2.061       .  S
Fe1209     O1215   2.114       .  S
Fe1209     O1222   2.118       .  S
Fe1209     O1214   2.049   1_565  S
Fe1209     O1220   1.953       .  S
Fe1210     O1213   2.065       .  S
Fe1210     O1217   2.055       .  S
Fe1210     O1221   2.047       .  S
Fe1210     O1226   2.040       .  S
Fe1210     O1220   1.971       .  S
Fe1211     O1229   2.090       .  S
Fe1211     O1216   2.069       .  S
Fe1211     O1223   2.055       .  S
Fe1211     O1212   2.095       .  S
Fe1211     O1220   1.961       .  S
O1212      C1219   1.271   1_565  A
O1213      C1227   1.272       .  A
O1214      C1219   1.261       .  A
O1215      C1218   1.284       .  A
O1216      C1228   1.271       .  A
O1217      C1230   1.263       .  A
C1218      O1223   1.273       .  A
C1218      C1877   1.492       .  S
O1221      C1224   1.267       .  A
O1222      C1224   1.287       .  A
C1224      C1941   1.495       .  S
O1225      C1230   1.264       .  A
O1226      C1228   1.260       .  A
C1227      O1229   1.277       .  A
C1227      C2018   1.489       .  S
C1228      C1906   1.472       .  S
C1230      C1890   1.486       .  S
Fe1231     O1247   2.133       .  S
Fe1231     O1237   2.045       .  S
Fe1231     O1244   2.072       .  S
Fe1231     O1236   2.143       .  S
Fe1231     O1242   1.949       .  S
Fe1232     O1235   2.038       .  S
Fe1232     O1239   2.051       .  S
Fe1232     O1243   2.058       .  S
Fe1232     O1248   2.074       .  S
Fe1232     O1242   1.960       .  S
Fe1233     O1251   2.078       .  S
Fe1233     O1238   2.099       .  S
Fe1233     O1245   2.138       .  S
Fe1233     O1234   2.044       .  S
Fe1233     O1242   1.958       .  S
O1234      C1241   1.269       .  A
O1235      C1249   1.262       .  A
O1236      C1241   1.293       .  A
O1237      C1240   1.257       .  A
O1238      C1250   1.275       .  A
O1239      C1252   1.270       .  A
C1240      O1245   1.276       .  A
C1240      C1973   1.511       .  S
C1241      C1845   1.513       .  S
O1243      C1246   1.264       .  A
O1244      C1246   1.268       .  A
C1246      C1861   1.488       .  S
O1247      C1252   1.285       .  A
O1248      C1250   1.274       .  A
C1249      O1251   1.279       .  A
C1249      C1909   1.475       .  S
C1250      C1954   1.487       .  S
C1252      C2034   1.498       .  S
Fe1253     O1269   2.088       .  S
Fe1253     O1259   2.030       .  S
Fe1253     O1266   2.058       .  S
Fe1253     O1258   2.092       .  S
Fe1253     O1264   1.953       .  S
Fe1254     O1257   2.028       .  S
Fe1254     O1261   2.088       .  S
Fe1254     O1265   2.057       .  S
Fe1254     O1270   2.073       .  S
Fe1254     O1264   1.964       .  S
Fe1255     O1273   2.064       .  S
Fe1255     O1260   2.069       .  S
Fe1255     O1267   2.087       .  S
Fe1255     O1256   2.073       .  S
Fe1255     O1264   1.956       .  S
O1256      C1263   1.281       .  A
O1257      C1271   1.264       .  A
O1258      C1263   1.287       .  A
O1259      C1262   1.256       .  A
O1260      C1272   1.271       .  A
O1261      C1274   1.278       .  A
C1262      O1267   1.265       .  A
C1263      C1813   1.489       .  S
O1265      C1268   1.262       .  A
O1266      C1268   1.258       .  A
C1268      C1893   1.496       .  S
O1269      C1274   1.280       .  A
O1270      C1272   1.270       .  A
C1271      O1273   1.273       .  A
C1271      C1826   1.457       .  S
C1272      C2181   1.493       .  S
C1274      C2117   1.498       .  S
Fe1275     O1291   2.061       .  S
Fe1275     O1281   2.123       .  S
Fe1275     O1288   2.132       .  S
Fe1275     O1280   2.032       .  S
Fe1275     O1286   1.945       .  S
Fe1276     O1279   2.065       .  S
Fe1276     O1283   2.066       .  S
Fe1276     O1287   2.055       .  S
Fe1276     O1292   2.045       .  S
Fe1276     O1286   1.970       .  S
Fe1277     O1295   2.087       .  S
Fe1277     O1282   2.050       .  S
Fe1277     O1289   2.028       .  S
Fe1277     O1278   2.105       .  S
Fe1277     O1286   1.958       .  S
O1278      C1285   1.273       .  A
O1279      C1293   1.273       .  A
O1280      C1285   1.258       .  A
O1281      C1284   1.286       .  A
O1282      C1294   1.265       .  A
O1283      C1296   1.264       .  A
C1284      O1289   1.267       .  A
C1284      C1794   1.489       .  S
C1285      C2085   1.493       .  S
O1287      C1290   1.272       .  A
O1288      C1290   1.288       .  A
C1290      C2162   1.501       .  S
O1291      C1296   1.262       .  A
O1292      C1294   1.263       .  A
C1293      O1295   1.279       .  A
C1293      C2098   1.486       .  S
C1294      C1829   1.463       .  S
C1296      C1858   1.486       .  S
Fe1297     O1313   2.081       .  S
Fe1297     O1303   2.091       .  S
Fe1297     O1310   2.083       .  S
Fe1297     O1302   2.058       .  S
Fe1297     O1308   1.944       .  S
Fe1298     O1301   2.089       .  S
Fe1298     O1305   2.069       .  S
Fe1298     O1309   2.087       .  S
Fe1298     O1314   2.024       .  S
Fe1298     O1308   1.958       .  S
Fe1299     O1317   2.067       .  S
Fe1299     O1304   2.059       .  S
Fe1299     O1311   2.076       .  S
Fe1299     O1300   2.083       .  S
Fe1299     O1308   1.947       .  S
O1300      C1307   1.267       .  A
O1301      C1315   1.275       .  A
O1302      C1307   1.264       .  A
O1303      C1306   1.284       .  A
O1304      C1316   1.269       .  A
O1305      C1318   1.268       .  A
C1306      O1311   1.277       .  A
C1306      C2146   1.486       .  S
C1307      C1730   1.497       .  S
O1309      C1312   1.275       .  A
O1310      C1312   1.276       .  A
C1312      C1714   1.500       .  S
O1313      C1318   1.267       .  A
O1314      C1316   1.262       .  A
C1315      O1317   1.272       .  A
C1315      C1746   1.495       .  S
C1316      C1781   1.459       .  S
C1318      C1762   1.508       .  S
Fe1319     O1335   2.128       .  S
Fe1319     O1325   2.045       .  S
Fe1319     O1332   2.095       .  S
Fe1319     O1324   2.145       .  S
Fe1319     O1330   1.950       .  S
Fe1320     O1323   2.051       .  S
Fe1320     O1327   2.039       .  S
Fe1320     O1331   2.063       .  S
Fe1320     O1336   2.065       .  S
Fe1320     O1330   1.951       .  S
Fe1321     O1339   2.040       .  S
Fe1321     O1326   2.086       .  S
Fe1321     O1333   2.093       .  S
Fe1321     O1322   2.028       .  S
Fe1321     O1330   1.952       .  S
O1322      C1329   1.267       .  A
O1323      C1337   1.268       .  A
O1324      C1329   1.291       .  A
O1325      C1328   1.260       .  A
O1326      C1338   1.276       .  A
O1327      C1340   1.264       .  A
C1328      O1333   1.269       .  A
C1329      C2069   1.490       .  S
O1331      C1334   1.266       .  A
O1332      C1334   1.274       .  A
C1334      C1701   1.507       .  S
O1335      C1340   1.284       .  A
O1336      C1338   1.271       .  A
C1337      O1339   1.265       .  A
C1337      C1778   1.476       .  S
C1338      C1650   1.493       .  S
C1340      C1685   1.504       .  S
Fe1341     O1357   2.118       .  S
Fe1341     O1347   2.045       .  S
Fe1341     O1354   2.074       .  S
Fe1341     O1346   2.111       .  S
Fe1341     O1352   1.958       .  S
Fe1342     O1345   2.028       .  S
Fe1342     O1349   2.056       .  S
Fe1342     O1353   2.057       .  S
Fe1342     O1358   2.070       .  S
Fe1342     O1352   1.984       .  S
Fe1343     O1361   2.055       .  S
Fe1343     O1348   2.093       .  S
Fe1343     O1355   2.105       .  S
Fe1343     O1344   2.045       .  S
Fe1343     O1352   1.970       .  S
O1344      C1351   1.272       .  A
O1345      C1359   1.259       .  A
O1346      C1351   1.286       .  A
O1347      C1350   1.262       .  A
O1348      C1360   1.276       .  A
O1349      C1362   1.270       .  A
C1350      O1355   1.271       .  A
C1350      C1602   1.502       .  S
C1351      C1989   1.489       .  S
O1353      C1356   1.262       .  A
O1354      C1356   1.267       .  A
C1356      C1765   1.498       .  S
O1357      C1362   1.285       .  A
O1358      C1360   1.274       .  A
C1359      O1361   1.266       .  A
C1359      C1637   1.446       .  S
C1360      C1589   1.491       .  S
C1362      C1618   1.490       .  S
Fe1363     O1379   2.084       .  S
Fe1363     O1369   2.134       .  S
Fe1363     O1376   2.128       .  S
Fe1363     O1368   2.046       .  S
Fe1363     O1374   1.951       .  S
Fe1364     O1367   2.072       .  S
Fe1364     O1371   2.063       .  S
Fe1364     O1375   2.054       .  S
Fe1364     O1380   2.037       .  S
Fe1364     O1374   1.964       .  S
Fe1365     O1383   2.075       .  S
Fe1365     O1370   2.049       .  S
Fe1365     O1377   2.033       .  S
Fe1365     O1366   2.075       .  S
Fe1365     O1374   1.960       .  S
O1366      C1373   1.267       .  A
O1367      C1381   1.276       .  A
O1368      C1373   1.260       .  A
O1369      C1372   1.290       .  A
O1370      C1382   1.264       .  A
O1371      C1384   1.266       .  A
C1372      O1377   1.267       .  A
C1372      C1925   1.488       .  S
O1375      C1378   1.273       .  A
O1376      C1378   1.286       .  A
C1378      C1538   1.517       .  S
O1379      C1384   1.267       .  A
O1380      C1382   1.261       .  A
C1381      O1383   1.272       .  A
C1381      C1570   1.482       .  S
C1382      C1634   1.445       .  S
C1384      C1698   1.507       .  S
Fe1385     O1401   2.067       .  S
Fe1385     O1391   2.135       .  S
Fe1385     O1398   2.130       .  S
Fe1385     O1390   2.044       .  S
Fe1385     O1396   1.944       .  S
Fe1386     O1389   2.074       .  S
Fe1386     O1393   2.080       .  S
Fe1386     O1397   2.052       .  S
Fe1386     O1402   2.052       .  S
Fe1386     O1396   1.960       .  S
Fe1387     O1405   2.095       .  S
Fe1387     O1392   2.052       .  S
Fe1387     O1399   2.033       .  S
Fe1387     O1388   2.105       .  S
Fe1387     O1396   1.956       .  S
O1388      C1395   1.270       .  A
O1389      C1403   1.275       .  A
O1390      C1395   1.261       .  A
O1391      C1394   1.289       .  A
O1392      C1404   1.271       .  A
O1393      C1406   1.272       .  A
C1394      O1399   1.270       .  A
C1394      C1874   1.493       .  S
O1397      C1400   1.270       .  A
O1398      C1400   1.284       .  A
C1400      C1541   1.520       .  S
O1401      C1406   1.266       .  A
O1402      C1404   1.266       .  A
C1403      O1405   1.276       .  A
C1403      C1605   1.489       .  S
C1404      C1525   1.462       .  S
C1406      C1506   1.499       .  S
Fe1407     O1423   2.127       .  S
Fe1407     O1413   2.040       .  S
Fe1407     O1420   2.078       .  S
Fe1407     O1412   2.131       .  S
Fe1407     O1418   1.948       .  S
Fe1408     O1411   2.039       .  S
Fe1408     O1415   2.048       .  S
Fe1408     O1419   2.045       .  S
Fe1408     O1424   2.059       .  S
Fe1408     O1418   1.972       .  S
Fe1409     O1427   2.052       .  S
Fe1409     O1414   2.077       .  S
Fe1409     O1421   2.074       .  S
Fe1409     O1410   2.052       .  S
Fe1409     O1418   1.953       .  S
O1410      C1417   1.273       .  A
O1411      C1425   1.259       .  A
O1412      C1417   1.293       .  A
O1413      C1416   1.260       .  A
O1414      C1426   1.275       .  A
O1415      C1428   1.272       .  A
C1416      O1421   1.262       .  A
C1416      C1573   1.494       .  S
C1417      C1842   1.494       .  S
O1419      C1422   1.259       .  A
O1420      C1422   1.264       .  A
C1422      C1490   1.497       .  S
O1423      C1428   1.288       .  A
O1424      C1426   1.272       .  A
C1425      O1427   1.265       .  A
C1425      C1522   1.457       .  S
C1426      C1557   1.481       .  S
C1428      C1621   1.487       .  S
Fe1429     O1445   2.108   1_565  S
Fe1429     O1435   2.058   1_565  S
Fe1429     O1442   2.086       .  S
Fe1429     O1434   2.109       .  S
Fe1429     O1440   1.964       .  S
Fe1430     O1433   2.025       .  S
Fe1430     O1437   2.052       .  S
Fe1430     O1441   2.040       .  S
Fe1430     O1446   2.059       .  S
Fe1430     O1440   1.977       .  S
Fe1431     O1449   2.058       .  S
Fe1431     O1436   2.088       .  S
Fe1431     O1443   2.098       .  S
Fe1431     O1432   2.048       .  S
Fe1431     O1440   1.967       .  S
O1432      C1439   1.272       .  A
O1433      C1447   1.258       .  A
O1434      C1439   1.284       .  A
O1435      C1438   1.265       .  A
O1436      C1448   1.276       .  A
O1437      C1450   1.270       .  A
C1438      O1443   1.270   1_545  A
C1439      C1810   1.505       .  S
O1441      C1444   1.258       .  A
O1442      C1444   1.268       .  A
C1444      C1509   1.493       .  S
O1445      C1450   1.285   1_545  A
O1446      C1448   1.272       .  A
C1447      O1449   1.266       .  A
C1447      C1474   1.455       .  S
C1448      C1733   1.476       .  S
C1450      C1682   1.489   1_565  S
Fe1451     O1467   2.064       .  S
Fe1451     O1457   2.120       .  S
Fe1451     O1464   2.122       .  S
Fe1451     O1456   2.045       .  S
Fe1451     O1462   1.938       .  S
Fe1452     O1455   2.064       .  S
Fe1452     O1459   2.073       .  S
Fe1452     O1463   2.043       .  S
Fe1452     O1468   2.050       .  S
Fe1452     O1462   1.951       .  S
Fe1453     O1471   2.093       .  S
Fe1453     O1458   2.058       .  S
Fe1453     O1465   2.034       .  S
Fe1453     O1454   2.116       .  S
Fe1453     O1462   1.961       .  S
O1454      C1461   1.272       .  A
O1455      C1469   1.270       .  A
O1456      C1461   1.258       .  A
O1457      C1460   1.286       .  A
O1458      C1470   1.273       .  A
O1459      C1472   1.268       .  A
C1460      O1465   1.271       .  A
C1460      C1797   1.486       .  S
C1461      C1653   1.495       .  S
O1463      C1466   1.268       .  A
O1464      C1466   1.282       .  A
C1466      C1717   1.513       .  S
O1467      C1472   1.268       .  A
O1468      C1470   1.269       .  A
C1469      O1471   1.273       .  A
C1469      C1666   1.478       .  S
C1470      C1477   1.455       .  S
C1472      C1493   1.493       .  S
C1473      C1474   1.400       .  A
C1473      C1478   1.396       .  A
C1473      H1480   1.085       .  S
C1474      C1475   1.417   1_556  A
C1475      C1476   1.400       .  A
C1475      C1482   1.518       .  S
C1476      C1477   1.399       .  A
C1476      H1481   1.085       .  S
C1477      C1478   1.413   1_554  A
C1478      C1479   1.516       .  S
C1479      F1483   1.384       .  S
C1479      F1484   1.382   1_556  S
C1479      F1485   1.383       .  S
C1482      F1486   1.383       .  S
C1482      F1487   1.382       .  S
C1482      F1488   1.383       .  S
C1489      C1490   1.410       .  A
C1489      C1494   1.410   1_455  A
C1489      H1496   1.084       .  S
C1490      C1491   1.423       .  A
C1491      C1492   1.409   1_455  A
C1491      C1498   1.520       .  S
C1492      C1493   1.406       .  A
C1492      H1497   1.083       .  S
C1493      C1494   1.418       .  A
C1494      C1495   1.518       .  S
C1495      F1499   1.385       .  S
C1495      F1500   1.384       .  S
C1495      F1501   1.382       .  S
C1498      F1502   1.383       .  S
C1498      F1503   1.383       .  S
C1498      F1504   1.385       .  S
C1505      C1506   1.406       .  A
C1505      C1510   1.407       .  A
C1505      H1512   1.084       .  S
C1506      C1507   1.428       .  A
C1507      C1508   1.413       .  A
C1507      C1514   1.521       .  S
C1508      C1509   1.403       .  A
C1508      H1513   1.082       .  S
C1509      C1510   1.419       .  A
C1510      C1511   1.516       .  S
C1511      F1515   1.385       .  S
C1511      F1516   1.383       .  S
C1511      F1517   1.384       .  S
C1514      F1518   1.383   1_565  S
C1514      F1519   1.383       .  S
C1514      F1520   1.385   1_565  S
C1521      C1522   1.399       .  A
C1521      C1526   1.396       .  A
C1521      H1528   1.084       .  S
C1522      C1523   1.419   1_554  A
C1523      C1524   1.397       .  A
C1523      C1530   1.518       .  S
C1524      C1525   1.399       .  A
C1524      H1529   1.086       .  S
C1525      C1526   1.415   1_556  A
C1526      C1527   1.517       .  S
C1527      F1531   1.385       .  S
C1527      F1532   1.382       .  S
C1527      F1533   1.382   1_554  S
C1530      F1534   1.383       .  S
C1530      F1535   1.377   1_556  S
C1530      F1536   1.384       .  S
C1537      C1538   1.416       .  A
C1537      H1544   1.082       .  S
C1538      C1539   1.421       .  A
C1539      C1546   1.519       .  S
C1540      C1541   1.417   1_554  A
C1540      H1545   1.080       .  S
C1541      C1542   1.420   1_565  A
C1542      C1543   1.519       .  S
C1543      F1548   1.382       .  S
C1543      F1549   1.384       .  S
C1546      F1550   1.382       .  S
C1546      F1551   1.384       .  S
C1553      C1554   1.405       .  A
C1553      C1558   1.410       .  A
C1554      C1555   1.427       .  A
C1555      C1556   1.402       .  A
C1555      C1562   1.526       .  S
C1556      C1557   1.400       .  A
C1556      H1561   1.083       .  S
C1557      C1558   1.419       .  A
C1558      C1559   1.518       .  S
C1559      F1563   1.384       .  S
C1559      F1564   1.383       .  S
C1559      F1565   1.383       .  S
C1562      F1566   1.381       .  S
C1562      F1567   1.382       .  S
C1562      F1568   1.386       .  S
C1569      C1570   1.407       .  A
C1569      C1574   1.415       .  A
C1569      H1576   1.083       .  S
C1570      C1571   1.416       .  A
C1571      C1572   1.402       .  A
C1571      C1578   1.522       .  S
C1572      C1573   1.409       .  A
C1572      H1577   1.083       .  S
C1573      C1574   1.420       .  A
C1574      C1575   1.518       .  S
C1575      F1579   1.385       .  S
C1575      F1580   1.383       .  S
C1575      F1581   1.383       .  S
C1578      F1582   1.383       .  S
C1578      F1583   1.382       .  S
C1578      F1584   1.385       .  S
C1585      C1586   1.406       .  A
C1585      C1590   1.407       .  A
C1585      H1592   1.083       .  S
C1586      C1587   1.413       .  A
C1587      C1588   1.417       .  A
C1588      C1589   1.412       .  A
C1588      H1593   1.082       .  S
C1589      C1590   1.415       .  A
C1590      C1591   1.518       .  S
C1591      F1595   1.384       .  S
C1591      F1596   1.383       .  S
C1591      F1597   1.384       .  S
C1594      F1598   1.383       .  S
C1594      F1599   1.383   1_545  S
C1601      C1602   1.410       .  A
C1601      C1606   1.405       .  A
C1601      H1608   1.085       .  S
C1602      C1603   1.419       .  A
C1603      C1604   1.420       .  A
C1603      C1610   1.515       .  S
C1604      C1605   1.410       .  A
C1604      H1609   1.083       .  S
C1605      C1606   1.415       .  A
C1606      C1607   1.519       .  S
C1607      F1611   1.384       .  S
C1607      F1612   1.382       .  S
C1607      F1613   1.383       .  S
C1610      F1614   1.383       .  S
C1610      F1615   1.381       .  S
C1610      F1616   1.384       .  S
C1617      C1618   1.412       .  A
C1617      C1622   1.420   1_556  A
C1617      H1624   1.083       .  S
C1618      C1619   1.417       .  A
C1619      C1620   1.405   1_556  A
C1619      C1626   1.519       .  S
C1620      C1621   1.403       .  A
C1620      H1625   1.084       .  S
C1621      C1622   1.413       .  A
C1622      C1623   1.513       .  S
C1623      F1627   1.384       .  S
C1623      F1628   1.383       .  S
C1623      F1629   1.383       .  S
C1626      F1630   1.382       .  S
C1626      F1631   1.382       .  S
C1626      F1632   1.385       .  S
C1633      C1634   1.403       .  A
C1633      C1638   1.398       .  A
C1633      H1640   1.085       .  S
C1634      C1635   1.405   1_554  A
C1635      C1636   1.397       .  A
C1635      C1642   1.515       .  S
C1636      C1637   1.403       .  A
C1636      H1641   1.085       .  S
C1637      C1638   1.408   1_556  A
C1638      C1639   1.517       .  S
C1639      F1643   1.385       .  S
C1639      F1644   1.383       .  S
C1639      F1645   1.382       .  S
C1642      F1646   1.383   1_556  S
C1642      F1647   1.381   1_556  S
C1642      F1648   1.384       .  S
C1649      C1650   1.399       .  A
C1649      C1654   1.403       .  A
C1649      H1656   1.082       .  S
C1650      C1651   1.424       .  A
C1651      C1652   1.419       .  A
C1651      C1658   1.518       .  S
C1652      C1653   1.405       .  A
C1652      H1657   1.082       .  S
C1653      C1654   1.426       .  A
C1654      C1655   1.522       .  S
C1655      F1659   1.385       .  S
C1655      F1660   1.378       .  S
C1655      F1661   1.381       .  S
C1658      F1662   1.383       .  S
C1658      F1663   1.381       .  S
C1658      F1664   1.384       .  S
C1665      C1666   1.406       .  A
C1665      C1670   1.409       .  A
C1665      H1672   1.084       .  S
C1666      C1667   1.411       .  A
C1667      C1668   1.411       .  A
C1667      C1674   1.516       .  S
C1668      C1669   1.408       .  A
C1668      H1673   1.083       .  S
C1669      C1670   1.412       .  A
C1670      C1671   1.517       .  S
C1671      F1675   1.384       .  S
C1671      F1677   1.382       .  S
C1674      F1678   1.383       .  S
C1674      F1679   1.383       .  S
C1674      F1680   1.385       .  S
C1681      C1686   1.407       .  A
C1681      H1688   1.083       .  S
C1682      C1683   1.422   1_545  A
C1683      C1684   1.418   1_566  A
C1683      C1690   1.516       .  S
C1684      H1689   1.084       .  S
C1685      C1686   1.432   1_554  A
C1686      C1687   1.522       .  S
C1687      F1691   1.385       .  S
C1687      F1692   1.381   1_556  S
C1687      F1693   1.383   1_556  S
C1690      F1694   1.382       .  S
C1690      F1695   1.385       .  S
C1690      F1696   1.385   1_556  S
C1697      C1698   1.406       .  A
C1697      C1702   1.409       .  A
C1697      H1704   1.083       .  S
C1698      C1699   1.425       .  A
C1699      C1700   1.418       .  A
C1699      C1706   1.518       .  S
C1700      C1701   1.409       .  A
C1700      H1705   1.082       .  S
C1701      C1702   1.425       .  A
C1702      C1703   1.521       .  S
C1703      F1707   1.385       .  S
C1703      F1708   1.383       .  S
C1703      F1709   1.384       .  S
C1706      F1710   1.383       .  S
C1706      F1711   1.384       .  S
C1706      F1712   1.385       .  S
C1713      C1714   1.409       .  A
C1713      C1718   1.415   1_556  A
C1713      H1720   1.082       .  S
C1714      C1715   1.416       .  A
C1715      C1716   1.412   1_556  A
C1715      C1722   1.519       .  S
C1716      C1717   1.417       .  A
C1716      H1721   1.082       .  S
C1717      C1718   1.424       .  A
C1718      C1719   1.519       .  S
C1719      F1723   1.385       .  S
C1719      F1724   1.382       .  S
C1719      F1725   1.383       .  S
C1722      F1726   1.383       .  S
C1722      F1727   1.383       .  S
C1722      F1728   1.384       .  S
C1729      C1730   1.412       .  A
C1729      C1734   1.403       .  A
C1729      H1736   1.084       .  S
C1730      C1731   1.422       .  A
C1731      C1732   1.413       .  A
C1731      C1738   1.516       .  S
C1732      C1733   1.405       .  A
C1732      H1737   1.083       .  S
C1733      C1734   1.409       .  A
C1734      C1735   1.517       .  S
C1735      F1739   1.385       .  S
C1735      F1740   1.382       .  S
C1735      F1741   1.384       .  S
C1738      F1742   1.382       .  S
C1738      F1743   1.382       .  S
C1738      F1744   1.385       .  S
C1745      C1746   1.412       .  A
C1745      C1750   1.416       .  A
C1745      H1752   1.083       .  S
C1746      C1747   1.418       .  A
C1747      C1748   1.407       .  A
C1747      C1754   1.518       .  S
C1748      C1749   1.406       .  A
C1748      H1753   1.083       .  S
C1749      C1750   1.416       .  A
C1751      F1756   1.383       .  S
C1751      F1757   1.383       .  S
C1754      F1758   1.382       .  S
C1754      F1759   1.383       .  S
C1754      F1760   1.385       .  S
C1761      C1762   1.411       .  A
C1761      C1766   1.411   1_655  A
C1761      H1768   1.084       .  S
C1762      C1763   1.430       .  A
C1763      C1764   1.410   1_655  A
C1763      C1770   1.522       .  S
C1764      C1765   1.404       .  A
C1764      H1769   1.083       .  S
C1765      C1766   1.419       .  A
C1766      C1767   1.517       .  S
C1767      F1771   1.384       .  S
C1767      F1772   1.383       .  S
C1767      F1773   1.383       .  S
C1770      F1774   1.384       .  S
C1770      F1775   1.384       .  S
C1770      F1776   1.385   1_655  S
C1777      C1778   1.412       .  A
C1777      C1782   1.394       .  A
C1777      H1784   1.080       .  S
C1778      C1779   1.419       .  A
C1779      C1780   1.399   1_554  A
C1779      C1786   1.522       .  S
C1780      C1781   1.405       .  A
C1780      H1785   1.083       .  S
C1781      C1782   1.405   1_556  A
C1782      C1783   1.518   1_554  S
C1783      F1787   1.385   1_556  S
C1783      F1788   1.382       .  S
C1783      F1789   1.383       .  S
C1786      F1790   1.385       .  S
C1786      F1791   1.382       .  S
C1786      F1792   1.383       .  S
C1793      C1794   1.414       .  A
C1793      C1798   1.409       .  A
C1793      H1800   1.083       .  S
C1794      C1795   1.411       .  A
C1795      C1796   1.410       .  A
C1795      C1802   1.517       .  S
C1796      C1797   1.412       .  A
C1796      H1801   1.083       .  S
C1797      C1798   1.410       .  A
C1798      C1799   1.519       .  S
C1799      F1803   1.384       .  S
C1799      F1804   1.384       .  S
C1799      F1805   1.382       .  S
C1802      F1806   1.384       .  S
C1802      F1807   1.382       .  S
C1802      F1808   1.384       .  S
C1809      C1810   1.419       .  A
C1809      C1814   1.410       .  A
C1809      H1816   1.082       .  S
C1810      C1811   1.420       .  A
C1811      C1812   1.410       .  A
C1811      C1818   1.519       .  S
C1812      C1813   1.409       .  A
C1812      H1817   1.084       .  S
C1813      C1814   1.412       .  A
C1814      C1815   1.520       .  S
C1815      F1819   1.385       .  S
C1815      F1820   1.383       .  S
C1815      F1821   1.383       .  S
C1818      F1822   1.383   1_565  S
C1818      F1823   1.383       .  S
C1818      F1824   1.385       .  S
C1825      C1826   1.409       .  A
C1825      C1830   1.400       .  A
C1825      H1832   1.082       .  S
C1826      C1827   1.404       .  A
C1827      C1828   1.399       .  A
C1827      C1834   1.518       .  S
C1828      C1829   1.410       .  A
C1828      H1833   1.078       .  S
C1829      C1830   1.407       .  A
C1830      C1831   1.518       .  S
C1831      F1835   1.385       .  S
C1831      F1836   1.382       .  S
C1831      F1837   1.383       .  S
C1834      F1838   1.383       .  S
C1834      F1839   1.382       .  S
C1834      F1840   1.384       .  S
C1841      C1842   1.395       .  A
C1841      C1846   1.414       .  A
C1841      H1848   1.083       .  S
C1842      C1843   1.425       .  A
C1843      C1844   1.414       .  A
C1843      C1850   1.521       .  S
C1844      C1845   1.405       .  A
C1844      H1849   1.082       .  S
C1845      C1846   1.439       .  A
C1846      C1847   1.523       .  S
C1847      F1851   1.385       .  S
C1847      F1852   1.383       .  S
C1847      F1853   1.383       .  S
C1850      F1854   1.382       .  S
C1850      F1855   1.382       .  S
C1850      F1856   1.385       .  S
C1857      C1858   1.404       .  A
C1857      C1862   1.408       .  A
C1857      H1864   1.084       .  S
C1858      C1859   1.422       .  A
C1859      C1860   1.409       .  A
C1859      C1866   1.521       .  S
C1860      C1861   1.405       .  A
C1860      H1865   1.083       .  S
C1861      C1862   1.418       .  A
C1862      C1863   1.516       .  S
C1863      F1867   1.385       .  S
C1863      F1868   1.382       .  S
C1863      F1869   1.384       .  S
C1866      F1870   1.383       .  S
C1866      F1871   1.383       .  S
C1866      F1872   1.384       .  S
C1873      C1874   1.413       .  A
C1873      C1878   1.412       .  A
C1873      H1880   1.083       .  S
C1874      C1875   1.412       .  A
C1875      C1876   1.412       .  A
C1875      C1882   1.517       .  S
C1876      C1877   1.411       .  A
C1876      H1881   1.083       .  S
C1877      C1878   1.414       .  A
C1878      C1879   1.519       .  S
C1879      F1883   1.385       .  S
C1879      F1884   1.384       .  S
C1879      F1885   1.382       .  S
C1882      F1886   1.384       .  S
C1882      F1887   1.382       .  S
C1882      F1888   1.384       .  S
C1889      C1890   1.404       .  A
C1889      C1894   1.409   1_455  A
C1889      H1896   1.083       .  S
C1890      C1891   1.415       .  A
C1891      C1892   1.403   1_455  A
C1891      C1898   1.516       .  S
C1892      C1893   1.408       .  A
C1892      H1897   1.084       .  S
C1893      C1894   1.428       .  A
C1894      C1895   1.522       .  S
C1895      F1899   1.385   1_565  S
C1895      F1900   1.384       .  S
C1895      F1901   1.384   1_565  S
C1898      F1902   1.383       .  S
C1898      F1903   1.383       .  S
C1898      F1904   1.384       .  S
C1905      C1906   1.397       .  A
C1905      C1910   1.401       .  A
C1905      H1912   1.083       .  S
C1906      C1907   1.420       .  A
C1907      C1908   1.401       .  A
C1907      C1914   1.519       .  S
C1908      C1909   1.399       .  A
C1908      H1913   1.083       .  S
C1909      C1910   1.427       .  A
C1910      C1911   1.522       .  S
C1911      F1915   1.385       .  S
C1911      F1916   1.383       .  S
C1911      F1917   1.379       .  S
C1914      F1918   1.384       .  S
C1914      F1919   1.381       .  S
C1914      F1920   1.385       .  S
C1921      C1922   1.401       .  A
C1921      C1926   1.414       .  A
C1921      H1928   1.082       .  S
C1922      C1923   1.438       .  A
C1923      C1924   1.410       .  A
C1923      C1930   1.523       .  S
C1924      C1925   1.392       .  A
C1924      H1929   1.082       .  S
C1925      C1926   1.427       .  A
C1926      C1927   1.521       .  S
C1927      F1931   1.384       .  S
C1927      F1932   1.379       .  S
C1927      F1933   1.382       .  S
C1930      F1934   1.379       .  S
C1930      F1935   1.383       .  S
C1930      F1936   1.385       .  S
C1937      C1942   1.420       .  A
C1937      H1944   1.083       .  S
C1938      C1939   1.435       .  A
C1939      C1940   1.410       .  A
C1939      C1946   1.519       .  S
C1940      H1945   1.083       .  S
C1941      C1942   1.424       .  A
C1942      C1943   1.516       .  S
C1943      F1947   1.385       .  S
C1943      F1948   1.384       .  S
C1943      F1949   1.380       .  S
C1946      F1950   1.381       .  S
C1946      F1951   1.386       .  S
C1946      F1952   1.381       .  S
C1953      C1954   1.408       .  A
C1953      C1958   1.412       .  A
C1953      H1960   1.084       .  S
C1954      C1955   1.412       .  A
C1955      C1956   1.414       .  A
C1955      C1962   1.514       .  S
C1956      C1957   1.408       .  A
C1956      H1961   1.084       .  S
C1957      C1958   1.414       .  A
C1959      F1963   1.383       .  S
C1959      F1964   1.383       .  S
C1959      F1965   1.384       .  S
C1962      F1966   1.383       .  S
C1962      F1967   1.384       .  S
C1962      F1968   1.385       .  S
C1969      C1970   1.397       .  A
C1969      C1974   1.406       .  A
C1969      H1976   1.083       .  S
C1970      C1971   1.427       .  A
C1971      C1972   1.426       .  A
C1971      C1978   1.516       .  S
C1972      C1973   1.408       .  A
C1972      H1977   1.082       .  S
C1973      C1974   1.431       .  A
C1974      C1975   1.521       .  S
C1975      F1979   1.385       .  S
C1975      F1980   1.381       .  S
C1975      F1981   1.376       .  S
C1978      F1982   1.382       .  S
C1978      F1983   1.383       .  S
C1978      F1984   1.385       .  S
C1985      C1986   1.417       .  A
C1985      C1990   1.408       .  A
C1985      H1992   1.082       .  S
C1986      C1987   1.416       .  A
C1987      C1988   1.411       .  A
C1987      C1994   1.519       .  S
C1988      C1989   1.413       .  A
C1988      H1993   1.083       .  S
C1989      C1990   1.410       .  A
C1990      C1991   1.518       .  S
C1991      F1995   1.385       .  S
C1991      F1996   1.382       .  S
C1991      F1997   1.383       .  S
C1994      F1998   1.383       .  S
C1994      F1999   1.383       .  S
C1994      F2000   1.385       .  S
C2001      C2002   1.403       .  A
C2001      C2006   1.417       .  A
C2001      H2008   1.083       .  S
C2002      C2003   1.426       .  A
C2003      C2004   1.408       .  A
C2003      C2010   1.520       .  S
C2004      C2005   1.400       .  A
C2004      H2009   1.083       .  S
C2005      C2006   1.424       .  A
C2006      C2007   1.516       .  S
C2007      F2011   1.385       .  S
C2007      F2012   1.382       .  S
C2007      F2013   1.379       .  S
C2010      F2014   1.380       .  S
C2010      F2015   1.382       .  S
C2010      F2016   1.385       .  S
C2017      C2018   1.399       .  A
C2017      C2022   1.405       .  A
C2017      H2024   1.083       .  S
C2018      C2019   1.422       .  A
C2019      C2020   1.415       .  A
C2019      C2026   1.517       .  S
C2020      C2021   1.405       .  A
C2020      H2025   1.082       .  S
C2021      C2022   1.427       .  A
C2022      C2023   1.523       .  S
C2023      F2027   1.385       .  S
C2023      F2028   1.382       .  S
C2023      F2029   1.383       .  S
C2026      F2030   1.382       .  S
C2026      F2031   1.383       .  S
C2026      F2032   1.384       .  S
C2033      C2034   1.403       .  A
C2033      C2038   1.408       .  A
C2033      H2040   1.082       .  S
C2034      C2035   1.416       .  A
C2035      C2036   1.426       .  A
C2035      C2042   1.514       .  S
C2036      C2037   1.415       .  A
C2036      H2041   1.082       .  S
C2037      C2038   1.422       .  A
C2038      C2039   1.520       .  S
C2039      F2043   1.382       .  S
C2039      F2044   1.382       .  S
C2039      F2045   1.385       .  S
C2042      F2046   1.385       .  S
C2042      F2047   1.383       .  S
C2042      F2048   1.383       .  S
C2049      C2050   1.409       .  A
C2049      C2054   1.392       .  A
C2049      H2056   1.079       .  S
C2050      C2051   1.413       .  A
C2051      C2052   1.399       .  A
C2051      C2058   1.521       .  S
C2052      C2053   1.412       .  A
C2052      H2057   1.083       .  S
C2053      C2054   1.413       .  A
C2054      C2055   1.523       .  S
C2055      F2059   1.385       .  S
C2055      F2060   1.383       .  S
C2055      F2061   1.384       .  S
C2058      F2062   1.384       .  S
C2058      F2063   1.385       .  S
C2058      F2064   1.383       .  S
C2065      C2066   1.395       .  A
C2065      C2070   1.410       .  A
C2065      H2072   1.082       .  S
C2066      C2067   1.429       .  A
C2067      C2068   1.409       .  A
C2067      C2074   1.521       .  S
C2068      C2069   1.395       .  A
C2068      H2073   1.082       .  S
C2069      C2070   1.431       .  A
C2070      C2071   1.521       .  S
C2071      F2075   1.385       .  S
C2071      F2076   1.381       .  S
C2071      F2077   1.379       .  S
C2074      F2078   1.382       .  S
C2074      F2079   1.381       .  S
C2074      F2080   1.385       .  S
C2081      C2082   1.398       .  A
C2081      C2086   1.403       .  A
C2081      H2088   1.084       .  S
C2082      C2083   1.424       .  A
C2083      C2084   1.417       .  A
C2083      C2090   1.516       .  S
C2084      C2085   1.404       .  A
C2084      H2089   1.083       .  S
C2085      C2086   1.427       .  A
C2086      C2087   1.523       .  S
C2087      F2091   1.382       .  S
C2087      F2092   1.385       .  S
C2087      F2093   1.382       .  S
C2090      F2094   1.383       .  S
C2090      F2095   1.382       .  S
C2090      F2096   1.384       .  S
C2097      C2098   1.398       .  A
C2097      C2102   1.399       .  A
C2097      H2104   1.084       .  S
C2098      C2099   1.422       .  A
C2099      C2100   1.417       .  A
C2099      C2106   1.519       .  S
C2100      C2101   1.406       .  A
C2101      C2102   1.426       .  A
C2102      C2103   1.523       .  S
C2103      F2107   1.385       .  S
C2103      F2108   1.382       .  S
C2103      F2109   1.379       .  S
C2106      F2110   1.381       .  S
C2106      F2111   1.383       .  S
C2106      F2112   1.385       .  S
C2113      C2114   1.414       .  A
C2113      C2118   1.414       .  A
C2113      H2120   1.081       .  S
C2115      C2116   1.414       .  A
C2115      C2122   1.517       .  S
C2116      C2117   1.409       .  A
C2116      H2121   1.082       .  S
C2118      C2119   1.520       .  S
C2119      F2123   1.385       .  S
C2119      F2124   1.383       .  S
C2122      F2127   1.381       .  S
C2122      F2128   1.385       .  S
C2129      C2130   1.405       .  A
C2129      C2134   1.414   1_655  A
C2129      H2136   1.083       .  S
C2130      C2131   1.417       .  A
C2131      C2132   1.408   1_655  A
C2131      C2138   1.516       .  S
C2132      C2133   1.408       .  A
C2132      H2137   1.084       .  S
C2133      C2134   1.425       .  A
C2134      C2135   1.520       .  S
C2135      F2139   1.385       .  S
C2135      F2140   1.383       .  S
C2135      F2141   1.383       .  S
C2138      F2142   1.382       .  S
C2138      F2143   1.384       .  S
C2138      F2144   1.385       .  S
C2145      C2146   1.407       .  A
C2145      C2150   1.413       .  A
C2145      H2152   1.084       .  S
C2146      C2147   1.410       .  A
C2147      C2148   1.409       .  A
C2147      C2154   1.519       .  S
C2148      C2149   1.418       .  A
C2148      H2153   1.082       .  S
C2149      C2150   1.424       .  A
C2150      C2151   1.519       .  S
C2151      F2155   1.385       .  S
C2151      F2156   1.383       .  S
C2151      F2157   1.383       .  S
C2154      F2158   1.382       .  S
C2154      F2159   1.383       .  S
C2154      F2160   1.385       .  S
C2161      C2162   1.414       .  A
C2161      C2166   1.420       .  A
C2161      H2168   1.082       .  S
C2162      C2163   1.418       .  A
C2163      C2164   1.407       .  A
C2163      C2170   1.519       .  S
C2164      C2165   1.410       .  A
C2164      H2169   1.082       .  S
C2165      C2166   1.417       .  A
C2166      C2167   1.515       .  S
C2167      F2171   1.385       .  S
C2167      F2172   1.382       .  S
C2167      F2173   1.384       .  S
C2170      F2174   1.382       .  S
C2170      F2175   1.382       .  S
C2170      F2176   1.385       .  S
C2177      C2178   1.411       .  A
C2177      C2182   1.419       .  A
C2177      H2184   1.081       .  S
C2178      C2179   1.423       .  A
C2179      C2180   1.403       .  A
C2179      C2186   1.523       .  S
C2180      C2181   1.405       .  A
C2180      H2185   1.083       .  S
C2181      C2182   1.416       .  A
C2182      C2183   1.515       .  S
C2183      F2187   1.384       .  S
C2183      F2188   1.384       .  S
C2183      F2189   1.383       .  S
C2186      F2190   1.383       .  S
C2186      F2191   1.384       .  S
C2186      F2192   1.385       .  S
C2193      C2194   1.407       .  A
C2193      C2198   1.407       .  A
C2193      H2200   1.082       .  S
C2194      C2195   1.412       .  A
C2195      C2196   1.415       .  A
C2195      C2202   1.514       .  S
C2196      C2197   1.409       .  A
C2196      H2201   1.083       .  S
C2197      C2198   1.411       .  A
C2199      F2204   1.383   1_545  S
C2199      F2205   1.383       .  S
C2202      F2206   1.383       .  S
C2202      F2207   1.383       .  S
C2202      F2208   1.385       .  S
C2209      C2210   1.406       .  A
C2209      C2214   1.406       .  A
C2209      H2216   1.084       .  S
C2210      C2211   1.424       .  A
C2211      C2212   1.410       .  A
C2211      C2218   1.520       .  S
C2212      C2213   1.407       .  A
C2212      H2217   1.082       .  S
C2213      C2214   1.420       .  A
C2214      C2215   1.517       .  S
C2215      F2219   1.385       .  S
C2215      F2220   1.383       .  S
C2215      F2221   1.384       .  S
C2218      F2222   1.383       .  S
C2218      F2223   1.383       .  S
C2218      F2224   1.385       .  S
C2225      C2226   1.407       .  A
C2225      C2230   1.404       .  A
C2225      H2232   1.083       .  S
C2226      C2227   1.415       .  A
C2227      C2228   1.401       .  A
C2227      C2234   1.519       .  S
C2228      C2229   1.406       .  A
C2228      H2233   1.083       .  S
C2229      C2230   1.416       .  A
C2230      C2231   1.520       .  S
C2231      F2235   1.385       .  S
C2231      F2236   1.383       .  S
C2231      F2237   1.383       .  S
C2234      F2238   1.385       .  S
C2234      F2239   1.382       .  S
C2234      F2240   1.382       .  S
