geometry optimzed in LAMMPS
_audit_creation_date              2020-12-01 
_audit_creation_method            'lammps2cif' 
_symmetry_space_group_name_H-M    'P1' 
_symmetry_Int_Tables_number       1 
_symmetry_cell_setting            triclinic 
loop_ 
_symmetry_equiv_pos_as_xyz 
  x,y,z 
_cell_length_a                    29.47985347 
_cell_length_b                    44.52041488524123 
_cell_length_c                    29.396725484785748 
_cell_angle_alpha                 89.49154858168367 
_cell_angle_beta                  107.42293285322573 
_cell_angle_gamma                 89.73318335211638 
loop_ 
_atom_site_label 
_atom_site_type_symbol 
_atom_site_fract_x 
_atom_site_fract_y 
_atom_site_fract_z 
_atom_site_charge 
O1          O  0.61077802  0.85802888  0.20099598    -0.85700
O2          O  0.59491801  0.80309361  0.23455313    -0.82700
C3          C  0.60059810  0.77623450  0.24884647     0.97800
O4          O  0.64224981  0.76558173  0.26635995    -0.82800
O5          O  0.68582103  0.76551697  0.19465150    -0.85400
C6          C  0.70739732  0.77496644  0.16640057     1.02300
O7          O  0.72499183  0.80091825  0.17074836    -0.78200
O8          O  0.64772339  0.83790372  0.15414130    -0.78300
C9          C  0.61165879  0.85081974  0.15954094     1.02300
O10         O  0.68287421  0.86834319  0.29177332    -0.85700
O11         O  0.65981271  0.81370400  0.32710601    -0.82700
C12         C  0.69712001  0.79922953  0.34973439     0.97800
O13         O  0.72680469  0.79163441  0.32876062    -0.82800
O14         O  0.77256444  0.78754479  0.25989803    -0.85400
C15         C  0.79607895  0.81122370  0.25834587     1.02300
O16         O  0.77487656  0.83625891  0.24849761    -0.78200
O17         O  0.70071936  0.87817841  0.22631139    -0.78300
C18         C  0.69706378  0.88663252  0.26608921     1.02200
Cr19       Cr  0.64087646  0.83465893  0.26245297     1.93700
Cr20       Cr  0.70534134  0.78041555  0.26107563     1.93200
Cr21       Cr  0.71003342  0.83707726  0.20306420     1.39100
O22         O  0.68577064  0.81742395  0.24273352    -1.23400
O23         O  0.34623126  0.86316743  0.81298134    -0.85700
O24         O  0.36733381  0.80842528  0.78279116    -0.82700
C25         C  0.36408403  0.78123318  0.77094698     0.97800
O26         O  0.32344240  0.76956188  0.75489684    -0.82800
O27         O  0.28445628  0.76958781  0.82983317    -0.85400
C28         C  0.26567022  0.77967187  0.85989427     1.02300
O29         O  0.24141039  0.80367020  0.85183875    -0.78200
O30         O  0.30856908  0.84597550  0.86160851    -0.78300
C31         C  0.34390384  0.85897123  0.85506762     1.02300
O32         O  0.27225478  0.87124065  0.72226352    -0.85700
O33         O  0.29787387  0.81648269  0.69045242    -0.82700
C34         C  0.26186307  0.80046007  0.67042534     0.97800
O35         O  0.23485355  0.79148653  0.69372062    -0.82800
O36         O  0.19335190  0.78547046  0.76572187    -0.85400
C37         C  0.16592111  0.80788789  0.76266597     1.02300
O38         O  0.18281197  0.83405332  0.76884392    -0.78200
O39         O  0.24879187  0.88038827  0.78467515    -0.78300
C40         C  0.25418034  0.88890009  0.74552837     1.02200
Cr41       Cr  0.31723201  0.83850792  0.75362626     1.93700
Cr42       Cr  0.26019452  0.78211296  0.76213240     1.93200
Cr43       Cr  0.24741287  0.83964964  0.81333732     1.39100
O44         O  0.27483214  0.82025057  0.77603478    -1.23400
O45         O  0.82462586  0.62701001  0.83590770    -0.85700
O46         O  0.78344503  0.67211206  0.87028157    -0.82700
C47         C  0.77060945  0.69857237  0.87472825     0.97800
O48         O  0.75692169  0.71589449  0.83881548    -0.82800
O49         O  0.83058383  0.72889553  0.80144131    -0.85400
C50         C  0.86040815  0.72572864  0.77881645     1.02300
O51         O  0.85648812  0.70443917  0.75008585    -0.78200
O52         O  0.87328835  0.65687106  0.81433004    -0.78300
C53         C  0.86527919  0.63899793  0.84476534     1.02300
O54         O  0.73876498  0.62215269  0.75544697    -0.85700
O55         O  0.69592546  0.66664678  0.79599850    -0.82700
C56         C  0.67441031  0.68689205  0.76672116     0.97800
O57         O  0.69704088  0.70296768  0.74557674    -0.82800
O58         O  0.76699662  0.71864445  0.70660265    -0.85400
C59         C  0.76650218  0.69978316  0.67427279     1.02300
O60         O  0.78189863  0.67318152  0.68547244    -0.78200
O61         O  0.80798709  0.62110455  0.74320265    -0.78300
C62         C  0.76882087  0.60861578  0.74010154     1.02200
Cr63       Cr  0.76200481  0.64894473  0.81127783     1.93700
Cr64       Cr  0.76460333  0.71363064  0.77356886     1.93200
Cr65       Cr  0.82660713  0.66444990  0.75030559     1.39100
O66         O  0.78364939  0.67572118  0.77804777    -1.23400
O67         O  0.14055208  0.63051383  0.18616672    -0.85700
O68         O  0.18024776  0.67645771  0.15102048    -0.82700
C69         C  0.19657429  0.70208387  0.14772842     0.97800
O70         O  0.20889481  0.71920084  0.18321472    -0.82800
O71         O  0.13162099  0.73287085  0.21672900    -0.85400
C72         C  0.10168396  0.72996410  0.23942822     1.02300
O73         O  0.10461006  0.70799578  0.26755040    -0.78200
O74         O  0.09045651  0.65984928  0.20645760    -0.78300
C75         C  0.09940429  0.64209769  0.17676089     1.02300
O76         O  0.22580834  0.62583736  0.26688511    -0.85700
O77         O  0.26730840  0.67077679  0.22654820    -0.82700
C78         C  0.28816029  0.69052897  0.25619516     0.97800
O79         O  0.26485002  0.70601586  0.27725641    -0.82800
O80         O  0.19253081  0.72292397  0.31213147    -0.85400
C81         C  0.19278880  0.70467745  0.34552914     1.02300
O82         O  0.17929676  0.67771830  0.33586785    -0.78200
O83         O  0.15706027  0.62463348  0.28016262    -0.78300
C84         C  0.19627220  0.61199081  0.28249524     1.02200
Cr85       Cr  0.20194244  0.65286136  0.21064944     1.93700
Cr86       Cr  0.19765394  0.71727442  0.24678580     1.93200
Cr87       Cr  0.13617086  0.66802221  0.27058409     1.39100
O88         O  0.17921776  0.67939225  0.24306431    -1.23400
O89         O  0.62912738  0.12842563  0.18623779    -0.85700
O90         O  0.66524422  0.17388767  0.14523166    -0.82700
C91         C  0.68026882  0.19964924  0.13979659     0.97800
O92         O  0.69287174  0.21728383  0.17470816    -0.82800
O93         O  0.62041726  0.22971201  0.21641884    -0.85400
C94         C  0.59339163  0.22613733  0.24227555     1.02300
O95         O  0.60185222  0.20538528  0.27304893    -0.78200
O96         O  0.58232030  0.15771636  0.21142581    -0.78300
C97         C  0.58859399  0.14036319  0.17993644     1.02300
O98         O  0.71898898  0.12423585  0.26098745    -0.85700
O99         O  0.75495663  0.16846039  0.21525153    -0.82700
C100        C  0.77767728  0.18845222  0.24302459     0.97800
O101        O  0.75710774  0.20509541  0.26553117    -0.82800
O102        O  0.68982826  0.22110301  0.30884756    -0.85400
C103        C  0.69476537  0.20258123  0.34303429     1.02300
O104        O  0.68102062  0.17555205  0.33476890    -0.78200
O105        O  0.65333837  0.12258925  0.28031954    -0.78300
C106        C  0.69174286  0.11027559  0.27936225     1.02200
Cr107      Cr  0.69071632  0.15071149  0.20503495     1.93700
Cr108      Cr  0.68829894  0.21541020  0.24110398     1.93200
Cr109      Cr  0.63269814  0.16580261  0.27260047     1.39100
O110        O  0.67137317  0.17733456  0.23987111    -1.23400
O111        O  0.31564128  0.13781829  0.83875200    -0.85700
O112        O  0.26935568  0.18694783  0.85886855    -0.82700
C113        C  0.25115157  0.21286825  0.85445351     0.97800
O114        O  0.24137997  0.22682734  0.81514116    -0.82800
O115        O  0.32038119  0.23715980  0.78304905    -0.85400
C116        C  0.35264149  0.23194309  0.76397705     1.02300
O117        O  0.35362356  0.20737698  0.74336447    -0.78200
O118        O  0.36674141  0.16452140  0.81538679    -0.78300
C119        C  0.35685633  0.14884246  0.84724122     1.02300
O120        O  0.23512959  0.12678005  0.75583254    -0.85700
O121        O  0.18744451  0.17483447  0.78180619    -0.82700
C122        C  0.16691550  0.19241950  0.74777562     0.97800
O123        O  0.19045149  0.20547826  0.72414090    -0.82800
O124        O  0.26461882  0.21866289  0.68985524    -0.85400
C125        C  0.26824035  0.19733672  0.66301203     1.02300
O126        O  0.28467555  0.17184873  0.68011128    -0.78200
O127        O  0.30629380  0.12445604  0.74796930    -0.78300
C128        C  0.26711648  0.11205638  0.74523883     1.02200
Cr129      Cr  0.25370434  0.15831687  0.80543397     1.93700
Cr130      Cr  0.25631219  0.21902287  0.75450406     1.93200
Cr131      Cr  0.32421765  0.16786496  0.74841095     1.39100
O132        O  0.27758834  0.18177807  0.76917026    -1.23400
O133        O  0.84394048  0.35829763  0.81198431    -0.85700
O134        O  0.86325702  0.30358994  0.77963525    -0.82700
C135        C  0.85781259  0.27685830  0.76547078     0.97800
O136        O  0.81646763  0.26639630  0.74856479    -0.82800
O137        O  0.77260202  0.26620625  0.82038452    -0.85400
C138        C  0.74979330  0.27559732  0.84756030     1.02300
O139        O  0.72941286  0.30091845  0.84024727    -0.78200
O140        O  0.80452624  0.33886340  0.85765467    -0.78300
C141        C  0.84132304  0.35109011  0.85303216     1.02300
O142        O  0.77336791  0.36926497  0.71949116    -0.85700
O143        O  0.79849075  0.31488268  0.68634110    -0.82700
C144        C  0.76151617  0.30051333  0.66384373     0.97800
O145        O  0.73239738  0.29181804  0.68488732    -0.82800
O146        O  0.68557065  0.28670712  0.75223252    -0.85400
C147        C  0.66009213  0.31008883  0.74964893     1.02300
O148        O  0.67971730  0.33542489  0.75907277    -0.78200
O149        O  0.75173361  0.37832378  0.78282900    -0.78300
C150        C  0.75625324  0.38702791  0.74340640     1.02200
Cr151      Cr  0.81600267  0.33535646  0.75062242     1.93700
Cr152      Cr  0.75324801  0.28062939  0.75291155     1.93200
Cr153      Cr  0.74353481  0.33718503  0.80689975     1.39100
O154        O  0.77081002  0.31779494  0.76969635    -1.23400
O155        O  0.08303825  0.34682414  0.20440815    -0.85700
O156        O  0.09393004  0.29926728  0.26583820    -0.82700
C157        C  0.08601178  0.27765614  0.23703200     0.97800
O158        O  0.11608923  0.27077374  0.21596792    -0.82800
O159        O  0.19001237  0.27772585  0.17697679    -0.85400
C160        C  0.17369878  0.29311004  0.13944176     1.02300
O161        O  0.16223814  0.32019032  0.14188899    -0.78200
O162        O  0.13333580  0.37103008  0.17676173    -0.78300
C163        C  0.09144276  0.36236262  0.17168826     1.02300
O164        O  0.15837310  0.37834077  0.27370071    -0.85700
O165        O  0.17537067  0.32543563  0.33099056    -0.82700
C166        C  0.18416330  0.29780604  0.34114669     0.97800
O167        O  0.18138924  0.27894245  0.30857363    -0.82800
O168        O  0.25289621  0.29108048  0.26794507    -0.85400
C169        C  0.27517820  0.30456700  0.24330065     1.02300
O170        O  0.25381147  0.32348888  0.21158485    -0.78200
O171        O  0.22208391  0.37296986  0.25079308    -0.78300
C172        C  0.19720791  0.38855060  0.27010106     1.02200
Cr173      Cr  0.13094767  0.33669682  0.26664281     1.93700
Cr174      Cr  0.18392448  0.28279151  0.24201564     1.93200
Cr175      Cr  0.19137578  0.34504466  0.19856249     1.39100
O176        O  0.16951045  0.32161347  0.23638109    -1.23400
C177        C  0.05312319  0.36845396  0.12599586    -0.20200
C178        C  0.06275697  0.38182695  0.08591982     0.36000
C179        C  0.02798199  0.38175193  0.04107989    -0.26200
C180        C  0.98343735  0.36864843  0.03504341     0.02500
C181        C  0.97260706  0.35695739  0.07538990     0.27300
C182        C  0.00742444  0.35694592  0.12021850    -0.25300
N183        N  0.10833301  0.39452264  0.08989696    -0.82700
H184        H  0.03666672  0.39081115  0.01040004     0.13100
C185        C  0.94977507  0.36494441  0.98614848     0.02400
N186        N  0.92652558  0.34441493  0.07037926    -0.81200
H187        H  0.99923829  0.34679150  0.15043043     0.17900
C188        C  0.93395565  0.33594247  0.97129121    -0.26100
C189        C  0.89985251  0.33112792  0.92713447     0.35900
C190        C  0.88162087  0.35575134  0.89650106    -0.20100
C191        C  0.89916250  0.38464450  0.90985425    -0.25400
C192        C  0.93286397  0.38955392  0.95474914     0.27300
H193        H  0.94783470  0.31695002  0.99472520     0.13100
N194        N  0.88308020  0.30128027  0.91336668    -0.82600
H195        H  0.88495072  0.40349772  0.88624455     0.17900
N196        N  0.94883845  0.41942340  0.96911107    -0.81200
H197        H  0.89959106  0.28567415  0.94004358     0.33500
H198        H  0.89325208  0.29567774  0.88333985     0.38000
H199        H  0.93295367  0.43495110  0.94206752     0.33500
H200        H  0.93719491  0.42486987  0.99831419     0.30200
H201        H  0.92432080  0.33641863  0.10318208     0.33500
H202        H  0.90150003  0.36180025  0.05970721     0.30200
H203        H  0.12298210  0.38316608  0.06656465     0.38100
H204        H  0.10324372  0.41700061  0.07886434     0.33600
C205        C  0.19368428  0.28534803  0.39008300    -0.20200
C206        C  0.22925778  0.29638952  0.42979402     0.36000
C207        C  0.24131360  0.27995707  0.47324477    -0.26200
C208        C  0.21847564  0.25277123  0.47740430     0.02500
C209        C  0.18237961  0.24217358  0.43778115     0.27300
C210        C  0.17021634  0.25862989  0.39491685    -0.25300
N211        N  0.25453876  0.32319790  0.42522995    -0.82700
H212        H  0.26881672  0.28820048  0.50386071     0.13100
C213        C  0.23163003  0.23561459  0.52335011     0.02400
N214        N  0.15904111  0.21425985  0.44087975    -0.81200
H215        H  0.14302613  0.24999855  0.36433225     0.17900
C216        C  0.19639069  0.22979611  0.54539794    -0.26100
C217        C  0.20720683  0.21435731  0.58911387     0.35900
C218        C  0.25396102  0.20430725  0.61155796    -0.20100
C219        C  0.28898389  0.20891297  0.58879299    -0.25400
C220        C  0.27822974  0.22447196  0.54471786     0.27300
H221        H  0.16045122  0.23802431  0.52918580     0.13100
N222        N  0.17090080  0.20975786  0.61169191    -0.82600
H223        H  0.32525393  0.20191541  0.60669598     0.17900
N224        N  0.31450762  0.22947871  0.52203421    -0.81200
H225        H  0.15731004  0.23071210  0.61688095     0.33500
H226        H  0.14341633  0.19762065  0.58836627     0.38000
H227        H  0.34681365  0.22011208  0.54246300     0.33500
H228        H  0.30461323  0.21799944  0.48966666     0.30200
H229        H  0.13323958  0.20964268  0.40862589     0.33500
H230        H  0.18455632  0.19711311  0.44651290     0.30200
H231        H  0.23034841  0.34111169  0.41898639     0.38100
H232        H  0.28070077  0.32770288  0.45731317     0.33600
C233        C  0.23693054  0.22591442  0.89417788    -0.20200
C234        C  0.19326649  0.24171431  0.88554730     0.36000
C235        C  0.17837194  0.25108278  0.92419069    -0.26200
C236        C  0.20660008  0.24580150  0.97108798     0.02500
C237        C  0.25034266  0.23035200  0.97990827     0.27300
C238        C  0.26470868  0.22010089  0.94127014    -0.25300
N239        N  0.16333548  0.24730931  0.83770818    -0.82700
H240        H  0.14472837  0.26285099  0.91779307     0.13100
C241        C  0.19099519  0.25780567  0.01069584     0.02400
N242        N  0.28009804  0.22541688  0.02801609    -0.81200
H243        H  0.29789643  0.20778942  0.94786365     0.17900
C244        C  0.18313337  0.23798288  0.04473754    -0.26100
C245        C  0.17424005  0.24872685  0.08576377     0.35900
C246        C  0.17311021  0.28018092  0.09304824    -0.20100
C247        C  0.17667509  0.29985465  0.05665071    -0.25400
C248        C  0.18596020  0.28898691  0.01567344     0.27300
H249        H  0.18540555  0.21395468  0.04005132     0.13100
N250        N  0.16639348  0.22710136  0.11898430    -0.82600
H251        H  0.17508056  0.32390762  0.06135415     0.17900
N252        N  0.19211547  0.30951455  0.97997497    -0.81200
H253        H  0.19452951  0.22764498  0.15052318     0.33500
H254        H  0.13457599  0.23246964  0.12603069     0.38000
H255        H  0.18689464  0.33168029  0.98883991     0.33500
H256        H  0.22745546  0.30780396  0.97981102     0.30200
H257        H  0.31097003  0.21367196  0.02832020     0.33500
H258        H  0.29097657  0.24644104  0.04280366     0.30200
H259        H  0.17982606  0.26381149  0.82286095     0.38100
H260        H  0.13071852  0.25655730  0.83786054     0.33600
C261        C  0.60800779  0.30621588  0.74151670    -0.20200
C262        C  0.57875474  0.32895404  0.75170788     0.36000
C263        C  0.53309893  0.32153334  0.75436307    -0.26200
C264        C  0.51594079  0.29215073  0.74612508     0.02500
C265        C  0.54363590  0.27001572  0.73282436     0.27300
C266        C  0.58896729  0.27732258  0.73016156    -0.25300
N267        N  0.59584899  0.35914465  0.76089658    -0.82700
H268        H  0.51109445  0.33854642  0.76363596     0.13100
C269        C  0.46937852  0.28398134  0.75217123     0.02400
N270        N  0.52607395  0.23988579  0.72349057    -0.81200
H271        H  0.61046433  0.25976567  0.72147844     0.17900
C272        C  0.43186799  0.27739360  0.71148490    -0.26100
C273        C  0.39107514  0.26282833  0.71530155     0.35900
C274        C  0.38770966  0.25475223  0.76075432    -0.20100
C275        C  0.42340589  0.26357323  0.80171193    -0.25400
C276        C  0.46462653  0.27801570  0.79780873     0.27300
H277        H  0.43573922  0.28202939  0.67658220     0.13100
N278        N  0.35402481  0.25462304  0.67305763    -0.82600
H279        H  0.42088519  0.25709398  0.83648509     0.17900
N280        N  0.50274147  0.28513212  0.83979089    -0.81200
H281        H  0.36227048  0.26152684  0.64245889     0.33500
H282        H  0.32320649  0.26638078  0.67316800     0.38000
H283        H  0.49364908  0.27937119  0.87048548     0.33500
H284        H  0.53202169  0.27173866  0.83996724     0.30200
H285        H  0.55061966  0.22629140  0.71384266     0.33500
H286        H  0.52277224  0.23092527  0.75535774     0.30200
H287        H  0.60015929  0.36774241  0.72925741     0.38100
H288        H  0.57042476  0.37279545  0.76903757     0.33600
C289        C  0.90003962  0.25858793  0.76522585    -0.20200
C290        C  0.89764432  0.23668761  0.72982630     0.36000
C291        C  0.93978095  0.22326498  0.72650179    -0.26200
C292        C  0.98396809  0.23106746  0.75772791     0.02500
C293        C  0.98640856  0.25168868  0.79444122     0.27300
C294        C  0.94445336  0.26539865  0.79766528    -0.25300
N295        N  0.85299347  0.22941611  0.69556051    -0.82700
H296        H  0.93838900  0.20734622  0.69844425     0.13100
C297        C  0.02779632  0.21931874  0.74943464     0.02400
N298        N  0.03166856  0.25911555  0.82748995    -0.81200
H299        H  0.94654994  0.28196401  0.82499437     0.17900
C300        C  0.05439241  0.23861438  0.72971591    -0.26100
C301        C  0.09844421  0.22957394  0.72496897     0.35900
C302        C  0.11625043  0.20040232  0.74048452    -0.20100
C303        C  0.08783638  0.18050763  0.75741442    -0.25400
C304        C  0.04371958  0.18969651  0.76200159     0.27300
H305        H  0.04137069  0.26125188  0.71953367     0.13100
N306        N  0.12592385  0.25051498  0.70676627    -0.82600
H307        H  0.10106105  0.15811266  0.76909745     0.17900
N308        N  0.01567467  0.16940978  0.78057635    -0.81200
H309        H  0.10667458  0.27038502  0.69521849     0.33500
H310        H  0.15548622  0.25647770  0.73497658     0.38000
H311        H  0.03226552  0.14835696  0.78782263     0.33500
H312        H  0.01422157  0.17786168  0.81319211     0.30200
H313        H  0.02745370  0.27485340  0.85213948     0.33500
H314        H  0.04548307  0.23962660  0.84691529     0.30200
H315        H  0.83315603  0.21739436  0.71357661     0.38100
H316        H  0.85813819  0.21496695  0.66965815     0.33600
C317        C  0.75476134  0.29041044  0.61426378    -0.20200
C318        C  0.70908298  0.28433312  0.58335096     0.36000
C319        C  0.70414603  0.26901453  0.54066451    -0.26200
C320        C  0.74401172  0.25910981  0.52808566     0.02500
C321        C  0.79012980  0.26614398  0.55828096     0.27300
C322        C  0.79472506  0.28216069  0.60042938    -0.25300
N323        N  0.66749052  0.29358196  0.59530075    -0.82700
H324        H  0.66875384  0.26448461  0.51734922     0.13100
C325        C  0.73576904  0.24234332  0.48269411     0.02400
N326        N  0.83300527  0.25655040  0.54863202    -0.81200
H327        H  0.83006669  0.28637496  0.62411460     0.17900
C328        C  0.75086757  0.25489244  0.44595241    -0.26100
C329        C  0.74083247  0.24105468  0.40133420     0.35900
C330        C  0.71339609  0.21440493  0.39239977    -0.20100
C331        C  0.69954034  0.20131768  0.42977073    -0.25400
C332        C  0.71053002  0.21501043  0.47485390     0.27300
H333        H  0.77018215  0.27586337  0.45204764     0.13100
N334        N  0.75795303  0.25428959  0.36483174    -0.82600
H335        H  0.67854405  0.18102205  0.42330953     0.17900
N336        N  0.69530426  0.20165955  0.51246918    -0.81200
H337        H  0.77696225  0.27390790  0.37697419     0.33500
H338        H  0.78201452  0.23910976  0.35772964     0.38000
H339        H  0.67682967  0.18178587  0.50096489     0.33500
H340        H  0.72578936  0.19569017  0.54003746     0.30200
H341        H  0.85198073  0.24285644  0.57710575     0.33500
H342        H  0.82589890  0.24308950  0.51851128     0.30200
H343        H  0.64734269  0.30767196  0.56797066     0.38100
H344        H  0.64734882  0.27448960  0.59648617     0.33600
C345        C  0.68847658  0.20839795  0.09400857    -0.20200
C346        C  0.67604520  0.18960812  0.05363401     0.36000
C347        C  0.69030572  0.19716990  0.01353641    -0.26200
C348        C  0.71700771  0.22305342  0.01289773     0.02500
C349        C  0.72855681  0.24213391  0.05247842     0.27300
C350        C  0.71445315  0.23467769  0.09256464    -0.25300
N351        N  0.64911311  0.16282946  0.05301235    -0.82700
H352        H  0.68034162  0.18279713  0.98259954     0.13100
C353        C  0.72772672  0.23181073  0.96858530     0.02400
N354        N  0.75406485  0.26935962  0.05176530    -0.81200
H355        H  0.72474427  0.24942144  0.12301552     0.17900
C356        C  0.68906539  0.23934146  0.92903562    -0.26100
C357        C  0.69600594  0.25191487  0.88789768     0.35900
C358        C  0.74264808  0.25683518  0.88610560    -0.20100
C359        C  0.78155940  0.24764325  0.92434276    -0.25400
C360        C  0.77471753  0.23522161  0.96587271     0.27300
H361        H  0.65320911  0.23660751  0.93110978     0.13100
N362        N  0.65584930  0.26067381  0.84832699    -0.82600
H363        H  0.81737504  0.25144596  0.92285816     0.17900
N364        N  0.81599485  0.22652767  0.00422439    -0.81200
H365        H  0.62397411  0.25604841  0.85559625     0.33500
H366        H  0.65636105  0.24735690  0.81935573     0.38000
H367        H  0.83470382  0.24599930  0.01749339     0.33500
H368        H  0.80676427  0.21631129  0.03233854     0.30200
H369        H  0.73323121  0.28732110  0.05701529     0.33500
H370        H  0.78524981  0.26864810  0.08043712     0.30200
H371        H  0.66899063  0.14461751  0.04709976     0.38100
H372        H  0.61793791  0.16440546  0.02427237     0.33600
C373        C  0.04136281  0.26068493  0.23029792    -0.20200
C374        C  0.03822843  0.22925301  0.22361746     0.36000
C375        C  0.99669907  0.21424848  0.22545685    -0.26200
C376        C  0.95856294  0.23018081  0.23337178     0.02500
C377        C  0.96070886  0.26165227  0.23712155     0.27300
C378        C  0.00202858  0.27649834  0.23581780    -0.25300
N379        N  0.07774885  0.21255562  0.21740896    -0.82700
H380        H  0.99441452  0.19006115  0.22182198     0.13100
C381        C  0.91609528  0.21427532  0.23800488     0.02400
N382        N  0.92094075  0.27835774  0.24288697    -0.81200
H383        H  0.00385047  0.30067032  0.23999719     0.17900
C384        C  0.90526128  0.21587580  0.28133308    -0.26100
C385        C  0.86113733  0.20613466  0.28493160     0.35900
C386        C  0.82747318  0.19434131  0.24441489    -0.20100
C387        C  0.83980099  0.19086104  0.20203336    -0.25400
C388        C  0.88351469  0.20109867  0.19821249     0.27300
H389        H  0.93065116  0.22593826  0.31186926     0.13100
N390        N  0.85008666  0.20870160  0.32914475    -0.82600
H391        H  0.81397041  0.18192885  0.17072311     0.17900
N392        N  0.89392588  0.19955969  0.15351662    -0.81200
H393        H  0.87859611  0.21802328  0.35535870     0.33500
H394        H  0.84559803  0.18697595  0.34080698     0.38000
H395        H  0.86614878  0.18923081  0.12774407     0.33500
H396        H  0.89571419  0.22156393  0.14149005     0.30200
H397        H  0.92835039  0.30132696  0.24559966     0.33500
H398        H  0.89246676  0.27564889  0.21190723     0.30200
H399        H  0.08149036  0.21881733  0.18438893     0.38100
H400        H  0.07039558  0.18955652  0.21540788     0.33600
C401        C  0.32576662  0.29704147  0.24820987    -0.20200
C402        C  0.34757686  0.26995803  0.26989096     0.36000
C403        C  0.39358716  0.26260836  0.26844116    -0.26200
C404        C  0.41821733  0.28140601  0.24551403     0.02500
C405        C  0.39729158  0.30869788  0.22507658     0.27300
C406        C  0.35138222  0.31622156  0.22656156    -0.25300
N407        N  0.32271459  0.24952387  0.29200036    -0.82700
H408        H  0.40998170  0.24163032  0.28421152     0.13100
C409        C  0.46602448  0.27196695  0.24361398     0.02400
N410        N  0.42277346  0.32862670  0.20289669    -0.81200
H411        H  0.33530499  0.33710117  0.21009650     0.17900
C412        C  0.47362720  0.26593312  0.19951240    -0.26100
C413        C  0.51669558  0.25286411  0.19737519     0.35900
C414        C  0.55260289  0.24612862  0.24020058    -0.20100
C415        C  0.54584777  0.25406993  0.28391117    -0.25400
C416        C  0.50309775  0.26692714  0.28606500     0.27300
H417        H  0.44503091  0.27000458  0.16690447     0.13100
N418        N  0.52305319  0.24511110  0.15231004    -0.82600
H419        H  0.57355794  0.24903382  0.31684688     0.17900
N420        N  0.49654877  0.27409570  0.33130185    -0.81200
H421        H  0.49322084  0.25155976  0.12433006     0.33500
H422        H  0.52538740  0.22170233  0.15112023     0.38000
H423        H  0.52707591  0.26870430  0.35921229     0.33500
H424        H  0.49194140  0.29736868  0.33206633     0.30200
H425        H  0.40237375  0.34777563  0.18937798     0.33500
H426        H  0.45286133  0.33594238  0.22942780     0.30200
H427        H  0.29468098  0.24047329  0.26500134     0.38100
H428        H  0.34466139  0.23140058  0.30791555     0.33600
C429        C  0.55047782  0.13549418  0.13385297    -0.20200
C430        C  0.50426731  0.14809863  0.12397293     0.36000
C431        C  0.47291896  0.14729761  0.07711058    -0.26200
C432        C  0.48642695  0.13409059  0.03984782     0.02500
C433        C  0.53149645  0.12027025  0.05004905     0.27300
C434        C  0.56283827  0.12104522  0.09669632    -0.25300
N435        N  0.48963852  0.16238873  0.16099786    -0.82700
H436        H  0.43818170  0.15783638  0.06924881     0.13100
C437        C  0.45401794  0.13616632  0.98995311     0.02400
N438        N  0.54558857  0.10596943  0.01268856    -0.81200
H439        H  0.59794934  0.11122305  0.10347262     0.17900
C440        C  0.46950035  0.15084943  0.95486614    -0.26100
C441        C  0.43925383  0.15495130  0.90792475     0.35900
C442        C  0.39229935  0.14359072  0.89530904    -0.20100
C443        C  0.37749273  0.12820922  0.93054844    -0.25400
C444        C  0.40767485  0.12445155  0.97748540     0.27300
H445        H  0.50508726  0.15999605  0.96462554     0.13100
N446        N  0.45616987  0.17094450  0.87358139    -0.82600
H447        H  0.34176580  0.11939310  0.92179073     0.17900
N448        N  0.39139645  0.10883106  0.01261723    -0.81200
H449        H  0.49226290  0.17590295  0.88778135     0.33500
H450        H  0.43836914  0.19164546  0.86701568     0.38000
H451        H  0.35634593  0.10175643  0.99793911     0.33500
H452        H  0.41223759  0.08940138  0.02267464     0.30200
H453        H  0.58011610  0.09721801  0.02581373     0.33500
H454        H  0.52308917  0.08772592  0.00099882     0.30200
H455        H  0.45524498  0.17124100  0.14748389     0.38100
H456        H  0.48813376  0.14577818  0.18585507     0.33600
C457        C  0.20503589  0.57973543  0.29789449    -0.20200
C458        C  0.16821663  0.56125134  0.30409396     0.36000
C459        C  0.17460357  0.52986694  0.30751673    -0.26200
C460        C  0.21753161  0.51624010  0.30710693     0.02500
C461        C  0.25583555  0.53480175  0.30562662     0.27300
C462        C  0.24904272  0.56619602  0.30046727    -0.25300
N463        N  0.12361613  0.57410655  0.30485734    -0.82700
H464        H  0.14499617  0.51584733  0.30855363     0.13100
C465        C  0.21980190  0.48270099  0.30346922     0.02400
N466        N  0.30119452  0.52163856  0.30832106    -0.81200
H467        H  0.27793845  0.58004064  0.29691896     0.17900
C468        C  0.23436985  0.47014933  0.26635052    -0.26100
C469        C  0.22998003  0.43919874  0.25653193     0.35900
C470        C  0.21042074  0.42012132  0.28442965    -0.20100
C471        C  0.19773931  0.43242564  0.32283462    -0.25400
C472        C  0.20280028  0.46334662  0.33303440     0.27300
H473        H  0.24668428  0.48484091  0.24302096     0.13100
N474        N  0.24270528  0.42751009  0.21651705    -0.82600
H475        H  0.18289760  0.41790483  0.34443446     0.17900
N476        N  0.18990865  0.47526750  0.37278190    -0.81200
H477        H  0.25730699  0.44432274  0.20032015     0.33500
H478        H  0.21136480  0.42077830  0.19108799     0.38000
H479        H  0.17780751  0.45819027  0.39077470     0.33500
H480        H  0.22073858  0.48379397  0.39681566     0.30200
H481        H  0.32554912  0.53825518  0.30655028     0.33500
H482        H  0.31431829  0.51129405  0.34183116     0.30200
H483        H  0.13025005  0.58689096  0.33578586     0.38100
H484        H  0.09987801  0.55733786  0.30778736     0.33600
C485        C  0.76049126  0.57703115  0.72308143    -0.20200
C486        C  0.79882423  0.55739190  0.72382772     0.36000
C487        C  0.79026806  0.52656998  0.71584585    -0.26200
C488        C  0.74442743  0.51477407  0.70620382     0.02500
C489        C  0.70572444  0.53453227  0.70167246     0.27300
C490        C  0.71416042  0.56537439  0.71055926    -0.25300
N491        N  0.84675521  0.56829197  0.73540982    -0.82700
H492        H  0.82001137  0.51137396  0.71954209     0.13100
C493        C  0.73907527  0.48155403  0.70802782     0.02400
N494        N  0.65817579  0.52300636  0.68932120    -0.81200
H495        H  0.68450791  0.58023214  0.70898496     0.17900
C496        C  0.71999719  0.46936566  0.74235688    -0.26100
C497        C  0.72197570  0.43836545  0.75206547     0.35900
C498        C  0.74494270  0.41893579  0.72774395    -0.20100
C499        C  0.76090148  0.43096005  0.69083065    -0.25400
C500        C  0.75796216  0.46204303  0.68059571     0.27300
H501        H  0.70530876  0.48431937  0.76330707     0.13100
N502        N  0.70185751  0.42680686  0.78755544    -0.82600
H503        H  0.77749363  0.41630210  0.67114539     0.17900
N504        N  0.77521658  0.47401897  0.64337577    -0.81200
H505        H  0.68746881  0.44414941  0.80278257     0.33500
H506        H  0.67349346  0.41298176  0.77017394     0.38000
H507        H  0.78810906  0.45677191  0.62660016     0.33500
H508        H  0.74622887  0.48366404  0.61755434     0.30200
H509        H  0.63370022  0.54037779  0.68758724     0.33500
H510        H  0.65035329  0.51419632  0.65500752     0.30200
H511        H  0.84895331  0.58176971  0.70684951     0.38100
H512        H  0.87083353  0.55058851  0.73786552     0.33600
C513        C  0.90233072  0.63349935  0.89184737    -0.20200
C514        C  0.89323233  0.61566246  0.92833382     0.36000
C515        C  0.92561528  0.61530840  0.97458999    -0.26200
C516        C  0.96754455  0.63204344  0.98547727     0.02500
C517        C  0.97827190  0.64856074  0.94890775     0.27300
C518        C  0.94570395  0.64910311  0.90259010    -0.25300
N519        N  0.85080820  0.59820241  0.91907480    -0.82700
H520        H  0.91753042  0.60225879  0.00244604     0.13100
C521        C  0.99912950  0.63298562  0.03563334     0.02400
N522        N  0.02193310  0.66505731  0.95916980    -0.81200
H523        H  0.95366595  0.66262417  0.87518524     0.17900
C524        C  0.03874826  0.61381109  0.05031111    -0.26100
C525        C  0.07053818  0.61500746  0.09694401     0.35900
C526        C  0.06290830  0.63628031  0.12972063    -0.20100
C527        C  0.02208060  0.65478169  0.11502479    -0.25400
C528        C  0.99031108  0.65338621  0.06844313     0.27300
H529        H  0.04507322  0.59798736  0.02503392     0.13100
N530        N  0.11079794  0.59493529  0.11066507    -0.82600
H531        H  0.01571508  0.67124164  0.13938415     0.17900
N532        N  0.94938363  0.67290457  0.05405551    -0.81200
H533        H  0.11175477  0.58129611  0.08217850     0.33500
H534        H  0.10615380  0.58059035  0.13724126     0.38000
H535        H  0.94768638  0.68647196  0.08232603     0.33500
H536        H  0.95368482  0.68735079  0.02740514     0.30200
H537        H  0.02484338  0.67578497  0.92836949     0.33500
H538        H  0.02059734  0.68200238  0.98310868     0.30200
H539        H  0.83208232  0.60513180  0.94230478     0.38100
H540        H  0.86070976  0.57573005  0.92688091     0.33600
C541        C  0.24336567  0.92076926  0.72975632    -0.20200
C542        C  0.21352703  0.93896879  0.74816747     0.36000
C543        C  0.21247248  0.97028360  0.74082009    -0.26200
C544        C  0.24029808  0.98386772  0.71533170     0.02500
C545        C  0.26696206  0.96558825  0.69361949     0.27300
C546        C  0.26805806  0.93424104  0.70083843    -0.25300
N547        N  0.18563095  0.92576365  0.77563665    -0.82700
H548        H  0.19184495  0.98434067  0.75729901     0.13100
C549        C  0.24651431  0.01706506  0.71772369     0.02400
N550        N  0.29432759  0.97912122  0.66592152    -0.81200
H551        H  0.29059203  0.92053192  0.68613332     0.17900
C552        C  0.29189523  0.02829104  0.74034086    -0.26100
C553        C  0.29964428  0.05915915  0.74820575     0.35900
C554        C  0.26078177  0.07955172  0.73352365    -0.20100
C555        C  0.21526695  0.06831199  0.71031575    -0.25400
C556        C  0.20785136  0.03728069  0.70184238     0.27300
H557        H  0.32138806  0.01267615  0.75318617     0.13100
N558        N  0.34648643  0.06952299  0.77349858    -0.82600
H559        H  0.18542438  0.08377434  0.69890536     0.17900
N560        N  0.16129702  0.02616222  0.67752769    -0.81200
H561        H  0.36962850  0.05139191  0.78620050     0.33500
H562        H  0.35972320  0.08081433  0.74889978     0.38000
H563        H  0.13672938  0.04387940  0.66810986     0.33500
H564        H  0.16283760  0.01659606  0.64567281     0.30200
H565        H  0.31239464  0.96268961  0.65278376     0.33500
H566        H  0.27043807  0.98956611  0.63628020     0.30200
H567        H  0.16072560  0.91170508  0.75301799     0.38100
H568        H  0.16630380  0.94226291  0.78713970     0.33600
C569        C  0.25306351  0.78945632  0.62080272    -0.20200
C570        C  0.29063389  0.78439389  0.60090292     0.36000
C571        C  0.28106192  0.77034707  0.55625654    -0.26200
C572        C  0.23515988  0.76059690  0.53162846     0.02500
C573        C  0.19753489  0.76618417  0.55072585     0.27300
C574        C  0.20684695  0.78039338  0.59510847    -0.25300
N575        N  0.33859758  0.79235828  0.62672594    -0.82700
H576        H  0.30974208  0.76625785  0.54104456     0.13100
C577        C  0.22651718  0.74557808  0.48486864     0.02400
N578        N  0.15002883  0.75732790  0.52490849    -0.81200
H579        H  0.17785422  0.78408203  0.61002724     0.17900
C580        C  0.21594387  0.71477478  0.48041646    -0.26100
C581        C  0.20624411  0.70024715  0.43594693     0.35900
C582        C  0.20659271  0.71708491  0.39500342    -0.20100
C583        C  0.21843012  0.74785993  0.40046151    -0.25400
C584        C  0.22780726  0.76221710  0.44451677     0.27300
H585        H  0.21522648  0.70208099  0.51180743     0.13100
N586        N  0.19569790  0.66873072  0.43243143    -0.82600
H587        H  0.21937956  0.76128837  0.36988032     0.17900
N588        N  0.23775334  0.79385773  0.44831168    -0.81200
H589        H  0.19574321  0.65996104  0.46552842     0.33500
H590        H  0.22339565  0.65789445  0.42351112     0.38000
H591        H  0.23758785  0.80291604  0.41530968     0.33500
H592        H  0.21002507  0.80441410  0.45750095     0.30200
H593        H  0.12635424  0.76286609  0.54392074     0.33500
H594        H  0.13955874  0.76988335  0.49322631     0.30200
H595        H  0.34943082  0.77848262  0.65697278     0.38100
H596        H  0.36162446  0.78772904  0.60660198     0.33600
C597        C  0.26871240  0.76299517  0.90380095    -0.20200
C598        C  0.28198588  0.77795303  0.94775144     0.36000
C599        C  0.27389395  0.76417408  0.98749499    -0.26200
C600        C  0.25291872  0.73576114  0.98398379     0.02500
C601        C  0.24238282  0.71997478  0.94073076     0.27300
C602        C  0.25063461  0.73378915  0.90082196    -0.25300
N603        N  0.30214416  0.80749668  0.95126559    -0.82700
H604        H  0.28197939  0.77620048  0.02083800     0.13100
C605        C  0.23887978  0.72432248  0.02503678     0.02400
N606        N  0.22198011  0.69051408  0.93725681    -0.81200
H607        H  0.24028506  0.72255380  0.86673371     0.17900
C608        C  0.19059746  0.71897808  0.01952685    -0.26100
C609        C  0.17491521  0.71185259  0.05880686     0.35900
C610        C  0.20859143  0.71036271  0.10454959    -0.20100
C611        C  0.25687568  0.71517582  0.10983162    -0.25400
C612        C  0.27249544  0.72176545  0.07043991     0.27300
H613        H  0.16468488  0.72130271  0.98462561     0.13100
N614        N  0.12491705  0.70708280  0.05096533    -0.82600
H615        H  0.28265542  0.71328107  0.14490967     0.17100
N616        N  0.32224862  0.72596981  0.07624132    -0.81200
H617        H  0.10713088  0.72706915  0.03709745     0.33500
H618        H  0.11715231  0.70280550  0.08275602     0.38000
H619        H  0.34220255  0.72317434  0.11199011     0.33500
H620        H  0.33311408  0.70896225  0.05741138     0.30200
H621        H  0.21586713  0.68214893  0.90283036     0.33500
H622        H  0.24708130  0.67625403  0.96012878     0.30200
H623        H  0.33484233  0.80558464  0.94442302     0.38100
H624        H  0.30942530  0.81555939  0.98601410     0.33600
C625        C  0.40809395  0.76375934  0.77292739    -0.20200
C626        C  0.40798470  0.73220817  0.76656377     0.36000
C627        C  0.44981696  0.71747705  0.76454115    -0.26200
C628        C  0.49180515  0.73344266  0.76905203     0.02500
C629        C  0.49250743  0.76462939  0.77707129     0.27300
C630        C  0.45083119  0.77941235  0.77883280    -0.25300
N631        N  0.36555365  0.71518596  0.76193526    -0.82700
H632        H  0.44959979  0.69345775  0.75885972     0.13100
C633        C  0.53496449  0.71761639  0.76479827     0.02400
N634        N  0.53564450  0.78119577  0.78313487    -0.81200
H635        H  0.45167538  0.80349002  0.78398280     0.17900
C636        C  0.55291524  0.72538849  0.72720347    -0.26100
C637        C  0.59655468  0.71372031  0.72468463     0.35900
C638        C  0.62342703  0.69409535  0.76115272    -0.20100
C639        C  0.60354751  0.68469668  0.79690509    -0.25400
C640        C  0.55974628  0.69635446  0.79920077     0.27300
H641        H  0.53320663  0.74126495  0.70027564     0.13100
N642        N  0.61409076  0.72235179  0.68582487    -0.82600
H643        H  0.62350473  0.66956405  0.82488779     0.17900
N644        N  0.54131436  0.68762257  0.83739973    -0.81200
H645        H  0.59039395  0.73716933  0.66251995     0.33500
H646        H  0.61552135  0.70300832  0.66637706     0.38000
H647        H  0.56367021  0.67174205  0.85967081     0.33500
H648        H  0.54145666  0.70660464  0.85816815     0.30200
H649        H  0.53023605  0.80398475  0.78834408     0.33500
H650        H  0.56054034  0.77328333  0.81433151     0.30200
H651        H  0.35802506  0.71635252  0.79444526     0.38100
H652        H  0.37126932  0.69248017  0.75646688     0.33600
C653        C  0.11504821  0.80263737  0.75797103    -0.20200
C654        C  0.09168269  0.77659718  0.73564696     0.36000
C655        C  0.04695308  0.76920881  0.74023260    -0.26200
C656        C  0.02518800  0.78720906  0.76667568     0.02500
C657        C  0.04710850  0.81393752  0.78695147     0.27300
C658        C  0.09178716  0.82154036  0.78215911    -0.25300
N659        N  0.11392279  0.75742173  0.70931818    -0.82700
H660        H  0.02947262  0.74884832  0.72424897     0.13100
C661        C  0.98029515  0.77679337  0.77409796     0.02400
N662        N  0.02459477  0.83264990  0.81357959    -0.81200
H663        H  0.10960258  0.84143498  0.79957977     0.17900
C664        C  0.98201870  0.76042694  0.81565849    -0.26100
C665        C  0.94147129  0.74555776  0.82012190     0.35900
C666        C  0.89880470  0.74734324  0.78237557    -0.20100
C667        C  0.89649669  0.76514664  0.74210823    -0.25400
C668        C  0.93688569  0.78003650  0.73768417     0.27300
H669        H  0.01565033  0.75794160  0.84343070     0.13100
N670        N  0.94425888  0.72692058  0.86105110    -0.82600
H671        H  0.86370161  0.76603949  0.71289513     0.17900
N672        N  0.93471705  0.79719322  0.69542785    -0.81200
H673        H  0.97848807  0.72740486  0.88510593     0.33500
H674        H  0.92148346  0.73619340  0.87855856     0.38000
H675        H  0.90029072  0.79701880  0.67171031     0.33500
H676        H  0.94209818  0.81952969  0.70559391     0.30200
H677        H  0.04561447  0.85133469  0.82675676     0.33500
H678        H  0.99291909  0.84088337  0.78992513     0.30200
H679        H  0.11719628  0.76978595  0.68008164     0.38100
H680        H  0.09225716  0.73908655  0.69555244     0.33600
C681        C  0.70636077  0.91872734  0.27991947    -0.20200
C682        C  0.69524858  0.93135655  0.31942412     0.36000
C683        C  0.69867924  0.96263073  0.32630037    -0.26200
C684        C  0.71281032  0.98159988  0.29473871     0.02500
C685        C  0.72591027  0.96898181  0.25665673     0.27300
C686        C  0.72309256  0.93777770  0.25003543    -0.25300
N687        N  0.67895977  0.91275132  0.35149258    -0.82700
H688        H  0.68899059  0.97245047  0.35572340     0.13100
C689        C  0.70934448  0.01474016  0.29896295     0.02400
N690        N  0.74015211  0.98802526  0.22364509    -0.81200
H691        H  0.73223201  0.92849558  0.21995806     0.17900
C692        C  0.74948205  0.03270889  0.30358101    -0.26100
C693        C  0.74566189  0.06427963  0.30085008     0.35900
C694        C  0.70067060  0.07808225  0.29326172    -0.20100
C695        C  0.66140016  0.06002835  0.29241019    -0.25400
C696        C  0.66507007  0.02858155  0.29443130     0.27300
H697        H  0.78359803  0.02198203  0.30785667     0.13100
N698        N  0.78700071  0.08224734  0.30471947    -0.82600
H699        H  0.62676178  0.07033127  0.28678281     0.17900
N700        N  0.62344458  0.01062110  0.28940510    -0.81200
H701        H  0.81712894  0.06860592  0.30982029     0.33500
H702        H  0.79284807  0.09522685  0.33537770     0.38000
H703        H  0.59372318  0.02423761  0.28660962     0.33500
H704        H  0.61651418  0.99905750  0.25725997     0.30200
H705        H  0.74887528  0.97521996  0.19774990     0.33500
H706        H  0.71084831  0.00132127  0.20564514     0.30200
H707        H  0.70745033  0.89901408  0.37010320     0.38100
H708        H  0.67014919  0.92580668  0.37706159     0.33600
C709        C  0.70431094  0.78804760  0.39939568    -0.20200
C710        C  0.66551180  0.78022257  0.41608956     0.36000
C711        C  0.67395933  0.76432201  0.45953261    -0.26200
C712        C  0.72026012  0.75669123  0.48739522     0.02500
C713        C  0.75908618  0.76575145  0.47200916     0.27300
C714        C  0.75070912  0.78090801  0.42799742    -0.25300
N715        N  0.61754995  0.78713456  0.38804393    -0.82700
H716        H  0.64419356  0.75758755  0.47164098     0.13100
C717        C  0.72780552  0.74022126  0.53351075     0.02400
N718        N  0.80689127  0.75951838  0.50120336    -0.81200
H719        H  0.78065215  0.78687816  0.41564317     0.17900
C720        C  0.75207114  0.71247037  0.54145977    -0.26100
C721        C  0.76317913  0.69769602  0.58595983     0.35900
C722        C  0.74974905  0.71085847  0.62379361    -0.20100
C723        C  0.72290748  0.73774065  0.61448252    -0.25400
C724        C  0.71233253  0.75265358  0.57022430     0.27300
H725        H  0.76340573  0.70253634  0.51309601     0.13100
N726        N  0.78931482  0.67001654  0.59180046    -0.82600
H727        H  0.71142814  0.74792149  0.64256426     0.17900
N728        N  0.68734254  0.78095906  0.56299889    -0.81200
H729        H  0.82134059  0.67251981  0.61889617     0.33500
H730        H  0.76927183  0.65320770  0.60161440     0.38000
H731        H  0.67822956  0.78697894  0.59341211     0.33500
H732        H  0.71071023  0.79739578  0.55796670     0.30200
H733        H  0.83143351  0.76757883  0.48480682     0.33500
H734        H  0.81252215  0.77149545  0.53284091     0.30200
H735        H  0.61331516  0.81046971  0.38816326     0.38100
H736        H  0.59324083  0.77814142  0.40393404     0.33600
C737        C  0.71665140  0.75550882  0.13030734    -0.20200
C738        C  0.76394339  0.75088953  0.13024052     0.36000
C739        C  0.77269059  0.73854466  0.09009036    -0.26200
C740        C  0.73501242  0.73064094  0.05029646     0.02500
C741        C  0.68757722  0.73263978  0.05229022     0.27300
C742        C  0.67895336  0.74530566  0.09241128    -0.25300
N743        N  0.80277911  0.75989686  0.17037699    -0.82700
H744        H  0.80895289  0.73653042  0.08881232     0.13100
C745        C  0.74635956  0.72343760  0.00598107     0.02400
N746        N  0.64758865  0.72236094  0.01440025    -0.81200
H747        H  0.64264843  0.74854307  0.09294027     0.17900
C748        C  0.77614525  0.69894269  0.00546667    -0.26100
C749        C  0.78757948  0.69150370  0.96390050     0.35900
C750        C  0.76758595  0.70858323  0.92165718    -0.20100
C751        C  0.74015904  0.73421986  0.92335017    -0.25400
C752        C  0.72998534  0.74207197  0.96531049     0.27300
H753        H  0.79021089  0.68549433  0.03757758     0.13100
N754        N  0.81903531  0.66661662  0.96449391    -0.82600
H755        H  0.72545864  0.74780679  0.89152915     0.17900
N756        N  0.70270472  0.76871528  0.96678207    -0.81200
H757        H  0.83005659  0.65635145  0.99814532     0.33500
H758        H  0.84964737  0.67524689  0.95828438     0.38000
H759        H  0.72471555  0.78332616  0.99123985     0.33500
H760        H  0.69304757  0.77983926  0.93377409     0.30200
H761        H  0.62726096  0.74117683  0.99890187     0.33500
H762        H  0.65819596  0.71166984  0.98777748     0.30200
H763        H  0.80177748  0.74660730  0.19956583     0.38100
H764        H  0.83531122  0.75533407  0.16444206     0.33600
C765        C  0.06513980  0.75297590  0.23800251    -0.20200
C766        C  0.06480251  0.76671625  0.28099029     0.36000
C767        C  0.02358537  0.78148257  0.28372501    -0.26200
C768        C  0.98264955  0.78272141  0.24437621     0.02500
C769        C  0.98418931  0.77118313  0.20019226     0.27300
C770        C  0.02574976  0.75644951  0.19736045    -0.25300
N771        N  0.10567966  0.76413322  0.32245341    -0.82700
H772        H  0.02240863  0.79061496  0.31741222     0.13100
C773        C  0.93710653  0.79217701  0.25204507     0.02400
N774        N  0.94276113  0.77292593  0.15923345    -0.81200
H775        H  0.02603550  0.74564971  0.16455237     0.17900
C776        C  0.91415498  0.81873541  0.23118468    -0.26100
C777        C  0.86963121  0.82708440  0.23610597     0.35900
C778        C  0.84739580  0.80808760  0.26195630    -0.20100
C779        C  0.87184188  0.78228700  0.28462215    -0.25400
C780        C  0.91618065  0.77407937  0.27976986     0.27300
H781        H  0.93071714  0.83269560  0.21036999     0.13100
N782        N  0.84606884  0.85387764  0.21285154    -0.82600
H783        H  0.85520818  0.76761857  0.30445389     0.17900
N784        N  0.93941475  0.74682298  0.30160214    -0.81200
H785        H  0.86616453  0.86435554  0.19349246     0.33500
H786        H  0.84454297  0.86890318  0.23952204     0.38000
H787        H  0.91952351  0.73611029  0.32096505     0.33500
H788        H  0.94053210  0.73223756  0.27426126     0.30200
H789        H  0.94988408  0.76364281  0.12953984     0.33500
H790        H  0.91660925  0.75955418  0.16639030     0.30200
H791        H  0.13352715  0.77557865  0.31492861     0.38100
H792        H  0.09950933  0.77489836  0.35153110     0.33600
C793        C  0.33897093  0.69770543  0.26179083    -0.20200
C794        C  0.36296266  0.72127577  0.29143055     0.36000
C795        C  0.40708631  0.73113050  0.28795314    -0.26200
C796        C  0.42813149  0.71780114  0.25623674     0.02500
C797        C  0.40580404  0.69345616  0.22846116     0.27300
C798        C  0.36168348  0.68349258  0.23174946    -0.25300
N799        N  0.34206746  0.73577469  0.32392236    -0.82700
H800        H  0.42483928  0.74975512  0.30940724     0.13100
C801        C  0.47240327  0.73076319  0.25087206     0.02400
N802        N  0.42753379  0.67942848  0.19625230    -0.81200
H803        H  0.34399965  0.66542177  0.20893248     0.17900
C804        C  0.51653682  0.71891425  0.27756559    -0.26100
C805        C  0.55930635  0.73254659  0.27659911     0.35900
C806        C  0.55760162  0.75836451  0.24751789    -0.20100
C807        C  0.51298722  0.76927229  0.21938625    -0.25400
C808        C  0.47050618  0.75587138  0.22098662     0.27300
H809        H  0.51748325  0.69957050  0.30047671     0.13100
N810        N  0.60400472  0.72075556  0.30615601    -0.82600
H811        H  0.51106744  0.78886950  0.19674647     0.17900
N812        N  0.42532905  0.76815745  0.19343210    -0.81200
H813        H  0.59883904  0.70127354  0.32403960     0.33500
H814        H  0.61846911  0.73656250  0.33252389     0.38000
H815        H  0.43003926  0.78702113  0.17394037     0.33500
H816        H  0.40847285  0.75205528  0.16851147     0.30200
H817        H  0.40673657  0.66165216  0.17861111     0.33500
H818        H  0.42828890  0.69527772  0.17002666     0.30200
H819        H  0.34074930  0.71991177  0.34993012     0.38100
H820        H  0.36364675  0.75318611  0.34180289     0.33600
C821        C  0.38273233  0.86815941  0.89820435    -0.20200
C822        C  0.43041133  0.87155156  0.89820501     0.36000
C823        C  0.46680825  0.87292764  0.94208218    -0.26200
C824        C  0.45654725  0.87073911  0.98573164     0.02500
C825        C  0.40885196  0.87004117  0.98571214     0.27300
C826        C  0.37253743  0.86926457  0.94207008    -0.25300
N827        N  0.44213926  0.87175092  0.85414978    -0.82700
H828        H  0.50361958  0.87390733  0.94238829     0.13100
C829        C  0.49584569  0.86554381  0.03065407     0.02400
N830        N  0.39756220  0.86857402  0.03000316    -0.81200
H831        H  0.33602968  0.86766890  0.94254893     0.17900
C832        C  0.50554725  0.88727147  0.06673997    -0.26100
C833        C  0.54250578  0.88298451  0.10986314     0.35900
C834        C  0.57061412  0.85662119  0.11655435    -0.20100
C835        C  0.56029607  0.83485509  0.08072159    -0.25400
C836        C  0.52277847  0.83850583  0.03863052     0.27300
H837        H  0.48436692  0.90769563  0.06103898     0.13100
N838        N  0.55208613  0.90546183  0.14623633    -0.82600
H839        H  0.58102879  0.81423011  0.08596726     0.17900
N840        N  0.51279278  0.81396865  0.00556960    -0.81200
H841        H  0.52807151  0.92338963  0.13578904     0.33500
H842        H  0.58584781  0.91411757  0.14962675     0.38000
H843        H  0.50468133  0.79526345  0.02336178     0.33500
H844        H  0.48266364  0.81794794  0.97667199     0.30200
H845        H  0.36074131  0.86830655  0.02379961     0.33500
H846        H  0.41062205  0.84811178  0.04664113     0.30200
H847        H  0.42780158  0.89146788  0.83567598     0.38100
H848        H  0.47891320  0.87299647  0.86064350     0.33600
loop_ 
_geom_bond_atom_site_label_1 
_geom_bond_atom_site_label_2 
_geom_bond_distance 
_geom_bond_site_symmetry_2 
_ccdc_geom_bond_type 
O1          Cr19   2.033       .  S
O1            C9   1.271       .  A
O2          Cr19   1.964       .  S
O2            C3   1.258       .  A
C3            O4   1.269       .  A
C3          C806   1.490       .  S
O4          Cr20   2.025       .  S
O5          Cr20   1.984       .  S
O5            C6   1.259       .  A
C6            O7   1.260       .  A
C6          C737   1.462       .  S
O7          Cr21   1.990       .  S
O8          Cr21   1.965       .  S
O8            C9   1.258       .  A
C9          C834   1.484       .  S
O10         Cr19   1.981       .  S
O10          C18   1.261       .  A
O11         Cr19   2.030       .  S
O11          C12   1.271       .  A
C12          O13   1.259       .  A
C12         C709   1.492       .  S
O13         Cr20   1.969       .  S
O14         Cr20   2.019       .  S
O14          C15   1.272       .  A
C15          O16   1.263       .  A
C15         C778   1.490       .  S
O16         Cr21   1.977       .  S
O17         Cr21   2.005       .  S
O17          C18   1.266       .  A
C18         C681   1.493       .  S
Cr19         O22   1.770       .  S
Cr20         O22   1.768       .  S
Cr21         O22   1.768       .  S
O23         Cr41   2.032       .  S
O23          C31   1.272       .  A
O24         Cr41   1.978       .  S
O24          C25   1.259       .  A
C25          O26   1.265       .  A
C25         C625   1.495       .  S
O26         Cr42   2.016       .  S
O27         Cr42   1.977       .  S
O27          C28   1.260       .  A
C28          O29   1.263       .  A
C28         C597   1.462       .  S
O29         Cr43   1.992       .  S
O30         Cr43   1.955       .  S
O30          C31   1.257       .  A
C31         C821   1.493       .  S
O32         Cr41   1.989       .  S
O32          C40   1.262       .  A
O33         Cr41   2.034       .  S
O33          C34   1.274       .  A
C34          O35   1.260       .  A
C34         C569   1.491       .  S
O35         Cr42   1.964       .  S
O36         Cr42   2.010       .  S
O36          C37   1.267       .  A
C37          O38   1.262       .  A
C37         C653   1.484       .  S
O38         Cr43   1.979       .  S
O39         Cr43   1.999       .  S
O39          C40   1.263       .  A
C40         C541   1.492       .  S
Cr41         O44   1.775       .  S
Cr42         O44   1.775       .  S
Cr43         O44   1.773       .  S
O45         Cr63   2.014       .  S
O45          C53   1.269       .  A
O46         Cr63   1.963       .  S
O46          C47   1.255       .  A
C47          O48   1.265       .  A
C47         C750   1.481       .  S
O48         Cr64   2.001       .  S
O49         Cr64   1.996       .  S
O49          C50   1.259       .  A
C50          O51   1.258       .  A
C50         C666   1.469       .  S
O51         Cr65   1.991       .  S
O52         Cr65   1.996       .  S
O52          C53   1.267       .  A
C53         C513   1.502       .  S
O54         Cr63   1.989       .  S
O54          C62   1.261       .  A
O55         Cr63   2.018       .  S
O55          C56   1.269       .  A
C56          O57   1.260       .  A
C56         C638   1.495       .  S
O57         Cr64   1.976       .  S
O58         Cr64   2.001       .  S
O58          C59   1.271       .  A
C59          O60   1.271       .  A
C59         C722   1.495       .  S
O60         Cr65   2.000       .  S
O61         Cr65   2.004       .  S
O61          C62   1.263       .  A
C62         C485   1.493       .  S
Cr63         O66   1.773       .  S
Cr64         O66   1.767       .  S
Cr65         O66   1.772       .  S
O67         Cr85   2.008       .  S
O67          C75   1.267       .  A
O68         Cr85   1.968       .  S
O68          C69   1.254       .  A
C69          O70   1.261       .  A
C69         C610   1.461       .  S
O70         Cr86   1.994       .  S
O71         Cr86   2.000       .  S
O71          C72   1.262       .  A
C72          O73   1.261       .  A
C72         C765   1.474       .  S
O73         Cr87   1.993       .  S
O74         Cr87   1.999       .  S
O74          C75   1.267       .  A
C75         C526   1.502       .  S
O76         Cr85   1.984       .  S
O76          C84   1.260       .  A
O77         Cr85   2.012       .  S
O77          C78   1.268       .  A
C78          O79   1.261       .  A
C78         C793   1.494       .  S
O79         Cr86   1.974       .  S
O80         Cr86   1.989       .  S
O80          C81   1.267       .  A
C81          O82   1.274       .  A
C81         C582   1.499       .  S
O82         Cr87   2.011       .  S
O83         Cr87   2.016       .  S
O83          C84   1.266       .  A
C84         C457   1.500       .  S
Cr85         O88   1.774       .  S
Cr86         O88   1.769       .  S
Cr87         O88   1.770       .  S
O89        Cr107   2.003       .  S
O89          C97   1.267       .  A
O90        Cr107   1.972       .  S
O90          C91   1.257       .  A
C91          O92   1.263       .  A
C91         C345   1.486       .  S
O92        Cr108   1.997       .  S
O93        Cr108   2.012       .  S
O93          C94   1.265       .  A
C94          O95   1.258       .  A
C94         C414   1.479       .  S
O95        Cr109   1.981       .  S
O96        Cr109   1.997       .  S
O96          C97   1.266       .  A
C97         C429   1.497       .  S
O98        Cr107   1.981       .  S
O98         C106   1.258       .  A
O99        Cr107   1.995       .  S
O99         C100   1.264       .  A
C100        O101   1.265       .  A
C100        C386   1.481       .  S
O101       Cr108   1.989       .  S
O102       Cr108   1.997       .  S
O102        C103   1.268       .  A
C103        O104   1.274       .  A
C103        C330   1.491       .  S
O104       Cr109   2.005       .  S
O105       Cr109   2.005       .  S
O105        C106   1.264       .  A
C106        C694   1.487       .  S
Cr107       O110   1.773       .  S
Cr108       O110   1.767       .  S
Cr109       O110   1.773       .  S
O111       Cr129   2.006       .  S
O111        C119   1.267       .  A
O112       Cr129   1.978       .  S
O112        C113   1.260       .  A
C113        O114   1.261       .  A
C113        C233   1.476       .  S
O114       Cr130   1.993       .  S
O115       Cr130   2.000       .  S
O115        C116   1.262       .  A
C116        O117   1.259       .  A
C116        C274   1.475       .  S
O117       Cr131   1.989       .  S
O118       Cr131   1.996       .  S
O118        C119   1.266       .  A
C119        C442   1.500       .  S
O120       Cr129   1.991       .  S
O120        C128   1.261       .  A
O121       Cr129   2.001       .  S
O121        C122   1.265       .  A
C122        O123   1.260       .  A
C122        C302   1.485       .  S
O123       Cr130   1.978       .  S
O124       Cr130   1.988       .  S
O124        C125   1.264       .  A
C125        O126   1.270       .  A
C125        C218   1.473       .  S
O126       Cr131   2.003       .  S
O127       Cr131   2.005       .  S
O127        C128   1.263       .  A
C128        C554   1.490       .  S
Cr129       O132   1.778       .  S
Cr130       O132   1.773       .  S
Cr131       O132   1.774       .  S
O133       Cr151   2.031       .  S
O133        C141   1.270       .  A
O134       Cr151   1.979       .  S
O134        C135   1.259       .  A
C135        O136   1.263       .  A
C135        C289   1.486       .  S
O136       Cr152   2.006       .  S
O137       Cr152   1.992       .  S
O137        C138   1.261       .  A
C138        O139   1.261       .  A
C138        C358   1.468       .  S
O139       Cr153   1.991       .  S
O140       Cr153   1.965       .  S
O140        C141   1.259       .  A
C141        C190   1.478       .  S
O142       Cr151   1.991       .  S
O142        C150   1.262       .  A
O143       Cr151   2.030       .  S
O143        C144   1.272       .  A
C144        O145   1.259       .  A
C144        C317   1.485       .  S
O145       Cr152   1.967       .  S
O146       Cr152   2.006       .  S
O146        C147   1.269       .  A
C147        O148   1.265       .  A
C147        C261   1.493       .  S
O148       Cr153   1.985       .  S
O149       Cr153   1.999       .  S
O149        C150   1.263       .  A
C150        C498   1.494       .  S
Cr151       O154   1.775       .  S
Cr152       O154   1.766       .  S
Cr153       O154   1.768       .  S
O155       Cr173   1.994       .  S
O155        C163   1.264       .  A
O156       Cr173   1.993       .  S
O156        C157   1.263       .  A
C157        O158   1.262       .  A
C157        C373   1.483       .  S
O158       Cr174   1.993       .  S
O159       Cr174   1.988       .  S
O159        C160   1.258       .  A
C160        O161   1.259       .  A
C160        C246   1.480       .  S
O161       Cr175   1.981       .  S
O162       Cr175   1.997       .  S
O162        C163   1.262       .  A
C163        C177   1.495       .  S
O164       Cr173   2.014       .  S
O164        C172   1.267       .  A
O165       Cr173   2.010       .  S
O165        C166   1.270       .  A
C166        O167   1.264       .  A
C166        C205   1.483       .  S
O167       Cr174   1.986       .  S
O168       Cr174   1.984       .  S
O168        C169   1.264       .  A
C169        O170   1.267       .  A
C169        C401   1.491       .  S
O170       Cr175   2.003       .  S
O171       Cr175   1.984       .  S
O171        C172   1.262       .  A
C172        C470   1.491       .  S
Cr173       O176   1.773       .  S
Cr174       O176   1.772       .  S
Cr175       O176   1.776       .  S
C177        C178   1.419       .  A
C177        C182   1.406       .  A
C178        C179   1.407       .  A
C178        N183   1.433       .  S
C179        C180   1.402   1_455  A
C179        H184   1.084       .  S
C180        C185   1.493   1_554  S
C180        C181   1.413       .  A
C181        C182   1.407   1_655  A
C181        N186   1.438       .  S
C182        H187   1.083   1_455  S
N183        H203   1.046       .  S
N183        H204   1.045       .  S
C185        C188   1.403       .  A
C185        C192   1.415       .  A
N186        H201   1.045       .  S
N186        H202   1.046       .  S
C188        C189   1.403       .  A
C188        H193   1.084       .  S
C189        C190   1.410       .  A
C189        N194   1.439       .  S
C190        C191   1.403       .  A
C191        C192   1.414       .  A
C191        H195   1.084       .  S
C192        N196   1.437       .  S
N194        H197   1.046       .  S
N194        H198   1.045       .  S
N196        H199   1.046       .  S
N196        H200   1.045       .  S
C205        C206   1.409       .  A
C205        C210   1.406       .  A
C206        C207   1.415       .  A
C206        N211   1.436       .  S
C207        C208   1.410       .  A
C207        H212   1.083       .  S
C208        C213   1.491       .  S
C208        C209   1.408       .  A
C209        C210   1.401       .  A
C209        N214   1.439       .  S
C210        H215   1.084       .  S
N211        H231   1.045       .  S
N211        H232   1.046       .  S
C213        C216   1.403       .  A
C213        C220   1.414       .  A
N214        H229   1.045       .  S
N214        H230   1.046       .  S
C216        C217   1.401       .  A
C216        H221   1.084       .  S
C217        C218   1.407       .  A
C217        N222   1.433       .  S
C218        C219   1.403       .  A
C219        C220   1.412       .  A
C219        H223   1.084       .  S
C220        N224   1.437       .  S
N222        H225   1.044       .  S
N222        H226   1.047       .  S
N224        H227   1.044       .  S
N224        H228   1.047       .  S
C233        C234   1.417       .  A
C233        C238   1.402       .  A
C234        C235   1.401       .  A
C234        N239   1.438       .  S
C235        C236   1.398       .  A
C235        H240   1.084       .  S
C236        C241   1.477   1_556  S
C236        C237   1.411       .  A
C237        C238   1.405       .  A
C237        N242   1.438   1_556  S
C238        H243   1.084       .  S
N239        H259   1.045       .  S
N239        H260   1.045       .  S
C241        C244   1.400       .  A
C241        C248   1.409       .  A
N242        H257   1.045       .  S
N242        H258   1.046       .  S
C244        C245   1.397       .  A
C244        H249   1.084       .  S
C245        C246   1.420       .  A
C245        N250   1.433       .  S
C246        C247   1.405       .  A
C247        C248   1.402       .  A
C247        H251   1.084       .  S
C248        N252   1.438   1_554  S
N250        H253   1.043       .  S
N250        H254   1.046       .  S
N252        H255   1.045       .  S
N252        H256   1.046       .  S
C261        C262   1.418       .  A
C261        C266   1.408       .  A
C262        C263   1.412       .  A
C262        N267   1.437       .  S
C263        C264   1.401       .  A
C263        H268   1.083       .  S
C264        C269   1.482       .  S
C264        C265   1.408       .  A
C265        C266   1.401       .  A
C265        N270   1.439       .  S
C266        H271   1.083       .  S
N267        H287   1.045       .  S
N267        H288   1.046       .  S
C269        C272   1.399       .  A
C269        C276   1.413       .  A
N270        H285   1.045       .  S
N270        H286   1.046       .  S
C272        C273   1.402       .  A
C272        H277   1.084       .  S
C273        C274   1.413       .  A
C273        N278   1.438       .  S
C274        C275   1.402       .  A
C275        C276   1.412       .  A
C275        H279   1.084       .  S
C276        N280   1.437       .  S
N278        H281   1.044       .  S
N278        H282   1.047       .  S
N280        H283   1.046       .  S
N280        H284   1.046       .  S
C289        C290   1.419       .  A
C289        C294   1.406       .  A
C290        C291   1.406       .  A
C290        N295   1.438       .  S
C291        C292   1.398       .  A
C291        H296   1.084       .  S
C292        C297   1.479   1_655  S
C292        C293   1.409       .  A
C293        C294   1.406       .  A
C293        N298   1.438   1_655  S
C294        H299   1.084       .  S
N295        H315   1.045       .  S
N295        H316   1.046       .  S
C297        C300   1.399       .  A
C297        C304   1.406       .  A
N298        H313   1.046       .  S
N298        H314   1.046       .  S
C300        C301   1.404       .  A
C300        H305   1.084       .  S
C301        C302   1.418       .  A
C301        N306   1.439       .  S
C302        C303   1.408       .  A
C303        C304   1.406       .  A
C303        H307   1.084       .  S
C304        N308   1.437       .  S
N306        H309   1.046       .  S
N306        H310   1.044       .  S
N308        H311   1.045       .  S
N308        H312   1.046       .  S
C317        C318   1.410       .  A
C317        C322   1.405       .  A
C318        C319   1.403       .  A
C318        N323   1.433       .  S
C319        C320   1.404       .  A
C319        H324   1.084       .  S
C320        C325   1.491       .  S
C320        C321   1.421       .  A
C321        C322   1.406       .  A
C321        N326   1.440       .  S
C322        H327   1.084       .  S
N323        H343   1.046       .  S
N323        H344   1.045       .  S
C325        C328   1.399       .  A
C325        C332   1.414       .  A
N326        H341   1.045       .  S
N326        H342   1.042       .  S
C328        C329   1.404       .  A
C328        H333   1.084       .  S
C329        C330   1.421       .  A
C329        N334   1.438       .  S
C330        C331   1.405       .  A
C331        C332   1.411       .  A
C331        H335   1.083       .  S
C332        N336   1.437       .  S
N334        H337   1.046       .  S
N334        H338   1.044       .  S
N336        H339   1.046       .  S
N336        H340   1.045       .  S
C345        C346   1.415       .  A
C345        C350   1.409       .  A
C346        C347   1.404       .  A
C346        N351   1.433       .  S
C347        C348   1.402       .  A
C347        H352   1.084   1_554  S
C348        C353   1.479   1_554  S
C348        C349   1.405       .  A
C349        C350   1.400       .  A
C349        N354   1.433       .  S
C350        H355   1.083       .  S
N351        H371   1.044       .  S
N351        H372   1.047       .  S
C353        C356   1.400       .  A
C353        C360   1.420       .  A
N354        H369   1.046       .  S
N354        H370   1.045       .  S
C356        C357   1.398       .  A
C356        H361   1.084       .  S
C357        C358   1.410       .  A
C357        N362   1.439       .  S
C358        C359   1.401       .  A
C359        C360   1.405       .  A
C359        H363   1.084       .  S
C360        N364   1.438   1_556  S
N362        H365   1.045       .  S
N362        H366   1.046       .  S
N364        H367   1.044       .  S
N364        H368   1.046       .  S
C373        C374   1.414       .  A
C373        C378   1.405       .  A
C374        C375   1.412   1_455  A
C374        N379   1.437       .  S
C375        C376   1.405       .  A
C375        H380   1.083       .  S
C376        C381   1.482       .  S
C376        C377   1.407       .  A
C377        C378   1.399   1_655  A
C377        N382   1.439       .  S
C378        H383   1.084       .  S
N379        H399   1.045       .  S
N379        H400   1.046       .  S
C381        C384   1.405       .  A
C381        C388   1.407       .  A
N382        H397   1.045       .  S
N382        H398   1.046       .  S
C384        C385   1.406       .  A
C384        H389   1.084       .  S
C385        C386   1.410       .  A
C385        N390   1.437       .  S
C386        C387   1.408       .  A
C387        C388   1.404       .  A
C387        H391   1.084       .  S
C388        N392   1.438       .  S
N390        H393   1.046       .  S
N390        H394   1.045       .  S
N392        H395   1.046       .  S
N392        H396   1.045       .  S
C401        C402   1.417       .  A
C401        C406   1.410       .  A
C402        C403   1.407       .  A
C402        N407   1.438       .  S
C403        C404   1.404       .  A
C403        H408   1.084       .  S
C404        C409   1.486       .  S
C404        C405   1.406       .  A
C405        C406   1.406       .  A
C405        N410   1.437       .  S
C406        H411   1.083       .  S
N407        H427   1.045       .  S
N407        H428   1.047       .  S
C409        C412   1.408       .  A
C409        C416   1.406       .  A
N410        H425   1.045       .  S
N410        H426   1.046       .  S
C412        C413   1.413       .  A
C412        H417   1.083       .  S
C413        C414   1.410       .  A
C413        N418   1.437       .  S
C414        C415   1.406       .  A
C415        C416   1.401       .  A
C415        H419   1.084       .  S
C416        N420   1.438       .  S
N418        H421   1.045       .  S
N418        H422   1.046       .  S
N420        H423   1.045       .  S
N420        H424   1.046       .  S
C429        C430   1.417       .  A
C429        C434   1.410       .  A
C430        C431   1.411       .  A
C430        N435   1.437       .  S
C431        C432   1.405       .  A
C431        H436   1.084       .  S
C432        C437   1.493   1_554  S
C432        C433   1.409       .  A
C433        C434   1.406       .  A
C433        N438   1.438       .  S
C434        H439   1.083       .  S
N435        H455   1.046       .  S
N435        H456   1.045       .  S
C437        C440   1.404       .  A
C437        C444   1.408       .  A
N438        H453   1.047       .  S
N438        H454   1.045       .  S
C440        C441   1.411       .  A
C440        H445   1.084       .  S
C441        C442   1.418       .  A
C441        N446   1.438       .  S
C442        C443   1.412       .  A
C443        C444   1.408       .  A
C443        H447   1.083       .  S
C444        N448   1.438   1_556  S
N446        H449   1.045       .  S
N446        H450   1.046       .  S
N448        H451   1.045   1_554  S
N448        H452   1.046       .  S
C457        C458   1.419       .  A
C457        C462   1.409       .  A
C458        C459   1.408       .  A
C458        N463   1.438       .  S
C459        C460   1.404       .  A
C459        H464   1.083       .  S
C460        C465   1.501       .  S
C460        C461   1.413       .  A
C461        C462   1.411       .  A
C461        N466   1.437       .  S
C462        H467   1.083       .  S
N463        H483   1.045       .  S
N463        H484   1.046       .  S
C465        C468   1.406       .  A
C465        C472   1.414       .  A
N466        H481   1.045       .  S
N466        H482   1.046       .  S
C468        C469   1.409       .  A
C468        H473   1.083       .  S
C469        C470   1.415       .  A
C469        N474   1.438       .  S
C470        C471   1.406       .  A
C471        C472   1.411       .  A
C471        H475   1.084       .  S
C472        N476   1.438       .  S
N474        H477   1.045       .  S
N474        H478   1.047       .  S
N476        H479   1.046       .  S
N476        H480   1.045       .  S
C485        C486   1.420       .  A
C485        C490   1.407       .  A
C486        C487   1.405       .  A
C486        N491   1.438       .  S
C487        C488   1.401       .  A
C487        H492   1.084       .  S
C488        C493   1.490       .  S
C488        C489   1.411       .  A
C489        C490   1.409       .  A
C489        N494   1.437       .  S
C490        H495   1.083       .  S
N491        H511   1.046       .  S
N491        H512   1.046       .  S
C493        C496   1.401       .  A
C493        C500   1.411       .  A
N494        H509   1.046       .  S
N494        H510   1.046       .  S
C496        C497   1.404       .  A
C496        H501   1.084       .  S
C497        C498   1.419       .  A
C497        N502   1.438       .  S
C498        C499   1.408       .  A
C499        C500   1.410       .  A
C499        H503   1.083       .  S
C500        N504   1.437       .  S
N502        H505   1.046       .  S
N502        H506   1.046       .  S
N504        H507   1.046       .  S
N504        H508   1.046       .  S
C513        C514   1.418       .  A
C513        C518   1.410       .  A
C514        C515   1.408       .  A
C514        N519   1.432       .  S
C515        C516   1.400       .  A
C515        H520   1.084   1_556  S
C516        C521   1.491   1_556  S
C516        C517   1.410       .  A
C517        C518   1.412       .  A
C517        N522   1.438   1_655  S
C518        H523   1.083       .  S
N519        H539   1.046       .  S
N519        H540   1.045       .  S
C521        C524   1.401   1_655  A
C521        C528   1.409       .  A
N522        H537   1.046       .  S
N522        H538   1.045       .  S
C524        C525   1.412       .  A
C524        H529   1.084       .  S
C525        C526   1.421       .  A
C525        N530   1.438       .  S
C526        C527   1.410       .  A
C527        C528   1.411   1_455  A
C527        H531   1.083       .  S
C528        N532   1.438       .  S
N530        H533   1.046       .  S
N530        H534   1.045       .  S
N532        H535   1.045       .  S
N532        H536   1.046       .  S
C541        C542   1.418       .  A
C541        C546   1.406       .  A
C542        C543   1.408       .  A
C542        N547   1.438       .  S
C543        C544   1.402       .  A
C543        H548   1.084       .  S
C544        C549   1.490   1_565  S
C544        C545   1.411       .  A
C545        C546   1.409       .  A
C545        N550   1.437       .  S
C546        H551   1.083       .  S
N547        H567   1.045       .  S
N547        H568   1.046       .  S
C549        C552   1.400       .  A
C549        C556   1.411       .  A
N550        H565   1.045       .  S
N550        H566   1.046       .  S
C552        C553   1.404       .  A
C552        H557   1.084       .  S
C553        C554   1.418       .  A
C553        N558   1.439       .  S
C554        C555   1.407       .  A
C555        C556   1.412       .  A
C555        H559   1.083       .  S
C556        N560   1.437       .  S
N558        H561   1.046       .  S
N558        H562   1.045       .  S
N560        H563   1.046       .  S
N560        H564   1.045       .  S
C569        C570   1.417       .  A
C569        C574   1.408       .  A
C570        C571   1.410       .  A
C570        N575   1.438       .  S
C571        C572   1.403       .  A
C571        H576   1.084       .  S
C572        C577   1.486       .  S
C572        C573   1.407       .  A
C573        C574   1.407       .  A
C573        N578   1.438       .  S
C574        H579   1.084       .  S
N575        H595   1.045       .  S
N575        H596   1.046       .  S
C577        C580   1.406       .  A
C577        C584   1.403       .  A
N578        H593   1.046       .  S
N578        H594   1.045       .  S
C580        C581   1.415       .  A
C580        H585   1.083       .  S
C581        C582   1.415       .  A
C581        N586   1.436       .  S
C582        C583   1.414       .  A
C583        C584   1.401       .  A
C583        H587   1.083       .  S
C584        N588   1.439       .  S
N586        H589   1.045       .  S
N586        H590   1.046       .  S
N588        H591   1.046       .  S
N588        H592   1.045       .  S
C597        C598   1.407       .  A
C597        C602   1.401       .  A
C598        C599   1.398       .  A
C598        N603   1.438       .  S
C599        C600   1.402       .  A
C599        H604   1.084   1_556  S
C600        C605   1.476   1_556  S
C600        C601   1.410       .  A
C601        C602   1.405       .  A
C601        N606   1.437       .  S
C602        H607   1.084       .  S
N603        H623   1.045       .  S
N603        H624   1.046       .  S
C605        C608   1.405       .  A
C605        C612   1.407       .  A
N606        H621   1.046       .  S
N606        H622   1.045       .  S
C608        C609   1.401       .  A
C608        H613   1.084   1_554  S
C609        C610   1.413       .  A
C609        N614   1.439       .  S
C610        C611   1.403       .  A
C611        C612   1.398       .  A
C611        H615   1.085       .  S
C612        N616   1.438       .  S
N614        H617   1.046       .  S
N614        H618   1.043       .  S
N616        H619   1.045       .  S
N616        H620   1.046       .  S
C625        C626   1.419       .  A
C625        C630   1.408       .  A
C626        C627   1.411       .  A
C626        N631   1.437       .  S
C627        C628   1.402       .  A
C627        H632   1.084       .  S
C628        C633   1.490       .  S
C628        C629   1.410       .  A
C629        C630   1.406       .  A
C629        N634   1.438       .  S
C630        H635   1.083       .  S
N631        H651   1.046       .  S
N631        H652   1.046       .  S
C633        C636   1.402       .  A
C633        C640   1.409       .  A
N634        H649   1.046       .  S
N634        H650   1.045       .  S
C636        C637   1.408       .  A
C636        H641   1.084       .  S
C637        C638   1.417       .  A
C637        N642   1.438       .  S
C638        C639   1.409       .  A
C639        C640   1.410       .  A
C639        H643   1.083       .  S
C640        N644   1.438       .  S
N642        H645   1.046       .  S
N642        H646   1.046       .  S
N644        H647   1.045       .  S
N644        H648   1.046       .  S
C653        C654   1.414       .  A
C653        C658   1.408       .  A
C654        C655   1.405       .  A
C654        N659   1.438       .  S
C655        C656   1.401       .  A
C655        H660   1.084       .  S
C656        C661   1.480   1_455  S
C656        C657   1.406       .  A
C657        C658   1.408       .  A
C657        N662   1.437       .  S
C658        H663   1.083       .  S
N659        H679   1.045       .  S
N659        H680   1.046       .  S
C661        C664   1.405       .  A
C661        C668   1.407       .  A
N662        H677   1.045       .  S
N662        H678   1.046   1_455  S
C664        C665   1.409       .  A
C664        H669   1.084   1_655  S
C665        C666   1.408       .  A
C665        N670   1.437       .  S
C666        C667   1.403       .  A
C667        C668   1.404       .  A
C667        H671   1.084       .  S
C668        N672   1.437       .  S
N670        H673   1.045       .  S
N670        H674   1.046       .  S
N672        H675   1.045       .  S
N672        H676   1.046       .  S
C681        C682   1.418       .  A
C681        C686   1.409       .  A
C682        C683   1.408       .  A
C682        N687   1.437       .  S
C683        C684   1.403       .  A
C683        H688   1.084       .  S
C684        C689   1.487   1_565  S
C684        C685   1.409       .  A
C685        C686   1.404       .  A
C685        N690   1.439       .  S
C686        H691   1.083       .  S
N687        H707   1.045       .  S
N687        H708   1.046       .  S
C689        C692   1.405       .  A
C689        C696   1.410       .  A
N690        H705   1.046       .  S
N690        H706   1.045   1_565  S
C692        C693   1.409       .  A
C692        H697   1.084       .  S
C693        C694   1.414       .  A
C693        N698   1.437       .  S
C694        C695   1.407       .  A
C695        C696   1.403       .  A
C695        H699   1.083       .  S
C696        N700   1.439       .  S
N698        H701   1.046       .  S
N698        H702   1.045       .  S
N700        H703   1.045       .  S
N700        H704   1.046   1_545  S
C709        C710   1.417       .  A
C709        C714   1.408       .  A
C710        C711   1.409       .  A
C710        N715   1.438       .  S
C711        C712   1.404       .  A
C711        H716   1.084       .  S
C712        C717   1.492       .  S
C712        C713   1.410       .  A
C713        C714   1.408       .  A
C713        N718   1.438       .  S
C714        H719   1.084       .  S
N715        H735   1.046       .  S
N715        H736   1.045       .  S
C717        C720   1.407       .  A
C717        C724   1.408       .  A
N718        H733   1.045       .  S
N718        H734   1.046       .  S
C720        C721   1.406       .  A
C720        H725   1.084       .  S
C721        C722   1.418       .  A
C721        N726   1.432       .  S
C722        C723   1.410       .  A
C723        C724   1.404       .  A
C723        H727   1.083       .  S
C724        N728   1.438       .  S
N726        H729   1.044       .  S
N726        H730   1.046       .  S
N728        H731   1.044       .  S
N728        H732   1.047       .  S
C737        C738   1.409       .  A
C737        C742   1.398       .  A
C738        C739   1.398       .  A
C738        N743   1.438       .  S
C739        C740   1.400       .  A
C739        H744   1.084       .  S
C740        C745   1.476       .  S
C740        C741   1.419       .  A
C741        C742   1.401       .  A
C741        N746   1.438       .  S
C742        H747   1.084       .  S
N743        H763   1.046       .  S
N743        H764   1.044       .  S
C745        C748   1.400       .  A
C745        C752   1.408   1_554  A
N746        H761   1.046   1_554  S
N746        H762   1.043   1_554  S
C748        C749   1.403   1_554  A
C748        H753   1.084       .  S
C749        C750   1.417       .  A
C749        N754   1.438       .  S
C750        C751   1.405       .  A
C751        C752   1.401       .  A
C751        H755   1.083       .  S
C752        N756   1.438       .  S
N754        H757   1.045       .  S
N754        H758   1.047       .  S
N756        H759   1.046       .  S
N756        H760   1.045       .  S
C765        C766   1.412       .  A
C765        C770   1.401       .  A
C766        C767   1.403       .  A
C766        N771   1.438       .  S
C767        C768   1.400   1_455  A
C767        H772   1.084       .  S
C768        C773   1.486       .  S
C768        C769   1.414       .  A
C769        C770   1.412   1_655  A
C769        N774   1.437       .  S
C770        H775   1.084       .  S
N771        H791   1.046       .  S
N771        H792   1.045       .  S
C773        C776   1.401       .  A
C773        C780   1.410       .  A
N774        H789   1.045       .  S
N774        H790   1.045       .  S
C776        C777   1.411       .  A
C776        H781   1.084       .  S
C777        C778   1.419       .  A
C777        N782   1.437       .  S
C778        C779   1.405       .  A
C779        C780   1.404       .  A
C779        H783   1.084       .  S
C780        N784   1.438       .  S
N782        H785   1.045       .  S
N782        H786   1.046       .  S
N784        H787   1.045       .  S
N784        H788   1.046       .  S
C793        C794   1.419       .  A
C793        C798   1.410       .  A
C794        C795   1.407       .  A
C794        N799   1.438       .  S
C795        C796   1.400       .  A
C795        H800   1.084       .  S
C796        C801   1.480       .  S
C796        C797   1.405       .  A
C797        C798   1.406       .  A
C797        N802   1.438       .  S
C798        H803   1.083       .  S
N799        H819   1.046       .  S
N799        H820   1.046       .  S
C801        C804   1.401       .  A
C801        C808   1.406       .  A
N802        H817   1.045       .  S
N802        H818   1.046       .  S
C804        C805   1.410       .  A
C804        H809   1.084       .  S
C805        C806   1.418       .  A
C805        N810   1.438       .  S
C806        C807   1.409       .  A
C807        C808   1.403       .  A
C807        H811   1.084       .  S
C808        N812   1.438       .  S
N810        H813   1.045       .  S
N810        H814   1.045       .  S
N812        H815   1.046       .  S
N812        H816   1.045       .  S
C821        C822   1.414       .  A
C821        C826   1.410       .  A
C822        C823   1.411       .  A
C822        N827   1.437       .  S
C823        C824   1.406       .  A
C823        H828   1.084       .  S
C824        C829   1.488   1_556  S
C824        C825   1.406       .  A
C825        C826   1.404       .  A
C825        N830   1.438   1_556  S
C826        H831   1.083       .  S
N827        H847   1.046       .  S
N827        H848   1.045       .  S
C829        C832   1.408       .  A
C829        C836   1.417       .  A
N830        H845   1.046       .  S
N830        H846   1.046       .  S
C832        C833   1.413       .  A
C832        H837   1.084       .  S
C833        C834   1.411       .  A
C833        N838   1.437       .  S
C834        C835   1.404       .  A
C835        C836   1.399       .  A
C835        H839   1.085       .  S
C836        N840   1.441       .  S
N838        H841   1.045       .  S
N838        H842   1.046       .  S
N840        H843   1.046       .  S
N840        H844   1.042   1_554  S
