geometry optimzed in LAMMPS
_audit_creation_date              2020-12-01 
_audit_creation_method            'lammps2cif' 
_symmetry_space_group_name_H-M    'P1' 
_symmetry_Int_Tables_number       1 
_symmetry_cell_setting            triclinic 
loop_ 
_symmetry_equiv_pos_as_xyz 
  x,y,z 
_cell_length_a                    47.66285135 
_cell_length_b                    28.02344965099809 
_cell_length_c                    57.951750754336544 
_cell_angle_alpha                 89.85574892762443 
_cell_angle_beta                  90.0993467534818 
_cell_angle_gamma                 90.0812559279266 
loop_ 
_atom_site_label 
_atom_site_type_symbol 
_atom_site_fract_x 
_atom_site_fract_y 
_atom_site_fract_z 
_atom_site_charge 
O1          O  0.80929565  0.76389210  0.36371885    -0.82000
C2          C  0.86553239  0.90116167  0.41737856     0.97400
O3          O  0.87358014  0.85825943  0.41527031    -0.71100
O4          O  0.82944995  0.80759562  0.42448872    -0.74700
Al5        Al  0.85497325  0.80511994  0.40020323     1.49000
C6          C  0.80386611  0.79678294  0.42378445     0.92600
O7          O  0.78289122  0.88266204  0.38541662    -0.80900
O8          O  0.84413078  0.87279209  0.34006979    -0.74400
Al9        Al  0.79875936  0.82430361  0.37506777     1.90100
O10         O  0.81320752  0.92958358  0.36866406    -0.73500
O11         O  0.88639417  0.87464657  0.36992782    -0.73400
O12         O  0.85214897  0.92093404  0.40104713    -0.79000
O13         O  0.88366187  0.79853144  0.37760937    -0.77200
O14         O  0.83372154  0.84125025  0.38200630    -1.13400
O15         O  0.83977033  0.74448378  0.39031887    -0.72600
C16         C  0.82212441  0.73247187  0.37506019     0.98200
C17         C  0.78929949  0.92300371  0.37742717     0.94600
Al18       Al  0.84786291  0.89516571  0.37078264     1.55600
O19         O  0.79036132  0.79865222  0.40501543    -0.77200
C20         C  0.89759950  0.83383757  0.37036860     0.98700
C21         C  0.82159984  0.85727163  0.33122440     0.93600
O22         O  0.80080756  0.84584851  0.34367173    -0.82500
O23         O  0.81218404  0.21390498  0.62725938    -0.82000
C24         C  0.86400053  0.07809851  0.56924345     0.97400
O25         O  0.87166505  0.12115056  0.57134611    -0.71100
O26         O  0.82596860  0.17014106  0.56466232    -0.74700
Al27       Al  0.85345297  0.17286336  0.58771645     1.49000
C28         C  0.80064132  0.18171945  0.56695275     0.92600
O29         O  0.78158771  0.09718645  0.60622712    -0.80900
O30         O  0.84599990  0.09852538  0.64768155    -0.74400
Al31       Al  0.79957223  0.15424250  0.61607160     1.90100
O32         O  0.81326791  0.04608591  0.61776913    -0.73500
O33         O  0.88620885  0.10237844  0.61679629    -0.73400
O34         O  0.85088114  0.05794223  0.58547691    -0.79000
O35         O  0.88338237  0.17889364  0.60920578    -0.77200
O36         O  0.83348447  0.13604240  0.60674322    -1.13400
O37         O  0.83905016  0.23348078  0.59842427    -0.72600
C38         C  0.82345399  0.24562677  0.61503013     0.98200
C39         C  0.78871563  0.05504734  0.61090983     0.94600
Al40       Al  0.84790654  0.08079203  0.61619179     1.55600
O41         O  0.78886751  0.18154851  0.58657618    -0.77200
C42         C  0.89715662  0.14357076  0.61659578     0.98700
C43         C  0.82540366  0.11593811  0.65839811     0.93600
O44         O  0.80422959  0.13141958  0.64738110    -0.82500
O45         O  0.19260651  0.84279630  0.34134930    -0.82000
C46         C  0.14334520  0.90476419  0.42469076     0.97400
O47         O  0.13961818  0.92334354  0.40502362    -0.71100
O48         O  0.18445510  0.95079833  0.38267454    -0.74700
Al49       Al  0.15414366  0.90950519  0.37483398     1.49000
C50         C  0.20962387  0.94781204  0.37638041     0.92600
O51         O  0.22309566  0.84289017  0.40215459    -0.80900
O52         O  0.15859891  0.76239856  0.38311482    -0.74400
Al53       Al  0.20612725  0.84363804  0.37211314     1.90100
O54         O  0.19066997  0.79811879  0.41828437    -0.73500
O55         O  0.11877743  0.82487374  0.39386711    -0.73400
O56         O  0.15313115  0.86314376  0.42642698    -0.79000
O57         O  0.12081222  0.87678903  0.36573165    -0.77200
O58         O  0.17214725  0.85637639  0.38342301    -1.13400
O59         O  0.16535282  0.90605018  0.34300263    -0.72600
C60         C  0.17791411  0.87428422  0.33148418     0.98200
C61         C  0.21499018  0.81582956  0.41830215     0.94600
Al62       Al  0.15655142  0.81581003  0.40356249     1.55600
O63         O  0.21884939  0.90840885  0.36919435    -0.77200
C64         C  0.10705087  0.84757769  0.37777318     0.98700
C65         C  0.18148755  0.74739877  0.37492794     0.93600
O66         O  0.20186637  0.77567725  0.37210238    -0.82500
O67         O  0.19391108  0.17020275  0.64910547    -0.82000
C68         C  0.14147983  0.10369422  0.56827375     0.97400
O69         O  0.13859020  0.08500537  0.58800074    -0.71100
O70         O  0.18517401  0.06169917  0.60880762    -0.74700
Al71       Al  0.15446630  0.10075573  0.61751069     1.49000
C72         C  0.21061183  0.06690328  0.61404988     0.92600
O73         O  0.21975539  0.17486430  0.58687449    -0.80900
O74         O  0.15432088  0.24820860  0.60908546    -0.74400
Al75       Al  0.20494134  0.17101106  0.61771060     1.90100
O76         O  0.18431646  0.21522975  0.57283502    -0.73500
O77         O  0.11560572  0.18218542  0.60005456    -0.73400
O78         O  0.14925011  0.14644081  0.56609526    -0.79000
O79         O  0.12104335  0.13064064  0.62780021    -0.77200
O80         O  0.17050914  0.15528321  0.60808590    -1.13400
O81         O  0.16740780  0.10582482  0.64872486    -0.72600
C82         C  0.18051727  0.13795504  0.65959680     0.98200
C83         C  0.20949443  0.20210221  0.57158115     0.94600
Al84       Al  0.15229427  0.19432726  0.58877308     1.55600
O85         O  0.21961859  0.10750213  0.61967449    -0.77200
C86         C  0.10569966  0.15929731  0.61687969     0.98700
C87         C  0.17753327  0.26475637  0.61608868     0.93600
O88         O  0.19857341  0.23785102  0.61821433    -0.82500
O89         O  0.30940900  0.28189872  0.36818318    -0.82000
C90         C  0.36336109  0.42750973  0.41877653     0.97400
O91         O  0.36972780  0.38366933  0.41926568    -0.71100
O92         O  0.32422280  0.33612028  0.42831788    -0.74700
Al93       Al  0.35168918  0.32900911  0.40552635     1.49000
C94         C  0.29872768  0.32501759  0.42659229     0.92600
O95         O  0.28092993  0.40352325  0.38369186    -0.80900
O96         O  0.34541645  0.38902367  0.34268287    -0.74400
Al97       Al  0.29783509  0.34386566  0.37657808     1.90100
O98         O  0.31285548  0.44914236  0.36819057    -0.73500
O99         O  0.38558838  0.39275606  0.37371737    -0.73400
O100        O  0.35030432  0.44458783  0.40167427    -0.79000
O101        O  0.38189699  0.31849047  0.38480990    -0.77200
O102        O  0.33210818  0.36233532  0.38489547    -1.13400
O103        O  0.33712453  0.26679513  0.39722375    -0.72600
C104        C  0.32121683  0.25218718  0.38126313     0.98200
C105        C  0.28814423  0.44330128  0.37550370     0.94600
Al106      Al  0.34726195  0.41454931  0.37256430     1.55600
O107        O  0.28682969  0.32306202  0.40705224    -0.77200
C108        C  0.39637579  0.35183161  0.37628932     0.98700
C109        C  0.32407659  0.37199392  0.33283482     0.93600
O110        O  0.30264139  0.36022059  0.34451287    -0.82500
O111        O  0.30427988  0.72660470  0.62446258    -0.82000
C112        C  0.36185402  0.59159029  0.57147077     0.97400
O113        O  0.37017222  0.63433998  0.57378166    -0.71100
O114        O  0.32679581  0.68650828  0.56501919    -0.74700
Al115      Al  0.35208462  0.68670780  0.58949861     1.49000
C116        C  0.30074618  0.69259319  0.56456181     0.92600
O117        O  0.27967518  0.60630398  0.60327685    -0.80900
O118        O  0.34100282  0.61593588  0.64865027    -0.74400
Al119      Al  0.29509212  0.66520618  0.61346977     1.90100
O120        O  0.31003815  0.55970674  0.61993468    -0.73500
O121        O  0.38313470  0.61471149  0.61847748    -0.73400
O122        O  0.34820701  0.57102853  0.58735875    -0.79000
O123        O  0.38125785  0.69132039  0.61215517    -0.77200
O124        O  0.33040106  0.64949287  0.60699806    -1.13400
O125        O  0.33729957  0.74660798  0.60017357    -0.72600
C126        C  0.31843455  0.75822643  0.61438012     0.98200
C127        C  0.28612763  0.56605845  0.61120746     0.94600
Al128      Al  0.34447735  0.59496276  0.61776186     1.55600
O129        O  0.28644419  0.68943118  0.58293473    -0.77200
C130        C  0.39513285  0.65493026  0.61805471     0.98700
C131        C  0.31835380  0.63035739  0.65764855     0.93600
O132        O  0.29774145  0.64399130  0.64530922    -0.82500
O133        O  0.69783965  0.31993848  0.34245126    -0.82000
C134        C  0.64096652  0.38725791  0.42113422     0.97400
O135        O  0.63944823  0.40638514  0.40139139    -0.71100
O136        O  0.68578204  0.43051294  0.38066953    -0.74700
Al137      Al  0.65570658  0.38960453  0.37221421     1.49000
C138        C  0.71127951  0.42627410  0.37565947     0.92600
O139        O  0.72002477  0.32324479  0.40602742    -0.80900
O140        O  0.65813171  0.24220040  0.38163834    -0.74400
Al141      Al  0.70735416  0.32202831  0.37436313     1.90100
O142        O  0.68576568  0.27857712  0.41895875    -0.73500
O143        O  0.61760145  0.30583946  0.38894865    -0.73400
O144        O  0.64842265  0.34444201  0.42347267    -0.79000
O145        O  0.62222538  0.35918417  0.36193817    -0.77200
O146        O  0.67212171  0.33608927  0.38245080    -1.13400
O147        O  0.66946683  0.38220109  0.34145265    -0.72600
C148        C  0.68419533  0.35113106  0.33126510     0.98200
C149        C  0.70918362  0.29832899  0.42200689     0.94600
Al150      Al  0.65390310  0.29637719  0.40138899     1.55600
O151        O  0.72099801  0.38573857  0.37116722    -0.77200
C152        C  0.60712475  0.33011106  0.37283889     0.98700
C153        C  0.68209184  0.22643787  0.37629347     0.93600
O154        O  0.70289076  0.25423010  0.37512629    -0.82500
O155        O  0.69411812  0.65693647  0.64477266    -0.82000
C156        C  0.64189613  0.58698594  0.56409385     0.97400
O157        O  0.64098572  0.56716102  0.58369781    -0.71100
O158        O  0.68693482  0.54498585  0.60612126    -0.74700
Al159      Al  0.65546732  0.58478203  0.61349418     1.49000
C160        C  0.71211593  0.55061580  0.61216510     0.92600
O161        O  0.72108298  0.65293655  0.58342125    -0.80900
O162        O  0.65785982  0.73402460  0.60308469    -0.74400
Al163      Al  0.70604934  0.65427932  0.61380818     1.90100
O164        O  0.68693403  0.69442586  0.56745967    -0.73500
O165        O  0.61749122  0.67021949  0.59637436    -0.73400
O166        O  0.64867657  0.63017422  0.56212252    -0.79000
O167        O  0.62093867  0.61419015  0.62232810    -0.77200
O168        O  0.67161833  0.63911424  0.60388231    -1.13400
O169        O  0.66744550  0.59286150  0.64510555    -0.72600
C170        C  0.68081973  0.62530443  0.65579823     0.98200
C171        C  0.71165783  0.67843099  0.56716128     0.94600
Al172      Al  0.65411384  0.67842178  0.58411022     1.55600
O173        O  0.72021046  0.59136133  0.61807530    -0.77200
C174        C  0.60658027  0.64567234  0.61223093     0.98700
C175        C  0.68149938  0.74993445  0.60923836     0.93600
O176        O  0.70170802  0.72174559  0.61228105    -0.82500
O177        O  0.78965599  0.85114431  0.14629840    -0.82000
C178        C  0.85023736  0.92135368  0.07357709     0.97400
O179        O  0.83704452  0.93740788  0.09076398    -0.71100
O180        O  0.80033493  0.94045320  0.12467246    -0.74700
Al181      Al  0.83478005  0.90640247  0.11965485     1.49000
C182        C  0.77620270  0.93584028  0.11601967     0.92600
O183        O  0.77525059  0.81875179  0.08281487    -0.80900
O184        O  0.82597731  0.75962427  0.09428780    -0.74400
Al185      Al  0.78544067  0.83667570  0.11382121     1.90100
O186        O  0.81396835  0.82898784  0.06313967    -0.73500
O187        O  0.87067219  0.81173096  0.10778959    -0.73400
O188        O  0.85836388  0.87822100  0.07308438    -0.79000
O189        O  0.87344840  0.88652617  0.11809173    -0.77200
O190        O  0.82016211  0.85456704  0.10670463    -1.13400
O191        O  0.83292002  0.87867659  0.14913689    -0.72600
C192        C  0.81096197  0.86202560  0.15841351     0.98200
C193        C  0.78804403  0.82138462  0.06369679     0.94600
Al194      Al  0.84062234  0.82211325  0.08645734     1.55600
O195        O  0.76949551  0.89701981  0.10675973    -0.77200
C196        C  0.88494304  0.84628967  0.11538261     0.98700
C197        C  0.80844112  0.74460153  0.10898276     0.93600
O198        O  0.79567777  0.77361986  0.12169131    -0.82500
O199        O  0.80504265  0.16523847  0.84189857    -0.82000
C200        C  0.85475399  0.11012896  0.92625934     0.97400
O201        O  0.85913660  0.09068837  0.90697740    -0.71100
O202        O  0.81380437  0.06063528  0.88631194    -0.74700
Al203      Al  0.84384013  0.10151659  0.87679143     1.49000
C204        C  0.78881486  0.06280245  0.87935856     0.92600
O205        O  0.77521382  0.16768143  0.90318358    -0.80900
O206        O  0.83805080  0.24956100  0.88160346    -0.74400
Al207      Al  0.79154770  0.16587143  0.87282651     1.90100
O208        O  0.80724052  0.21539000  0.91787247    -0.73500
O209        O  0.87866883  0.18898936  0.89324506    -0.73400
O210        O  0.84533580  0.15212661  0.92717906    -0.79000
O211        O  0.87668878  0.13415401  0.86647961    -0.77200
O212        O  0.82570341  0.15506249  0.88418177    -1.13400
O213        O  0.83194772  0.10165828  0.84498260    -0.72600
C214        C  0.81961978  0.13272871  0.83273273     0.98200
C215        C  0.78343885  0.19588906  0.91885701     0.94600
Al216      Al  0.84116705  0.19774065  0.90324128     1.55600
O217        O  0.77952493  0.10088722  0.87074716    -0.77200
C218        C  0.89022772  0.16531227  0.87749828     0.98700
C219        C  0.81479522  0.26268552  0.87316820     0.93600
O220        O  0.79470388  0.23355144  0.87172129    -0.82500
O221        O  0.18367744  0.78328739  0.12351938    -0.82000
C222        C  0.12877757  0.92302829  0.06944058     0.97400
O223        O  0.12381438  0.87873484  0.06887709    -0.71100
O224        O  0.17142777  0.83556516  0.06194291    -0.74700
Al225      Al  0.14267204  0.82631241  0.08375211     1.49000
C226        C  0.19698145  0.82593606  0.06484807     0.92600
O227        O  0.21014305  0.90551520  0.10627600    -0.80900
O228        O  0.14540972  0.88940450  0.14715055    -0.74400
Al229      Al  0.19457900  0.84555354  0.11444054     1.90100
O230        O  0.17701529  0.95051538  0.12028155    -0.73500
O231        O  0.10588628  0.88697345  0.11509085    -0.73400
O232        O  0.14024098  0.94140844  0.08692104    -0.79000
O233        O  0.11141473  0.81349841  0.10321241    -0.77200
O234        O  0.16023956  0.86132811  0.10499405    -1.13400
O235        O  0.15831056  0.76597302  0.09320665    -0.72600
C236        C  0.17309077  0.75272218  0.11018923     0.98200
C237        C  0.20179678  0.94576206  0.11286110     0.94600
Al238      Al  0.14346733  0.91273267  0.11645254     1.55600
O239        O  0.20736377  0.82358542  0.08489671    -0.77200
C240        C  0.09597243  0.84563313  0.11156203     0.98700
C241        C  0.16730340  0.87558470  0.15744486     0.93600
O242        O  0.18893681  0.86414062  0.14607091    -0.82500
O243        O  0.18563199  0.23836883  0.86688031    -0.82000
C244        C  0.12680399  0.10091188  0.91948466     0.97400
O245        O  0.11991747  0.14431459  0.91769343    -0.71100
O246        O  0.16566535  0.19073056  0.92746104    -0.74700
Al247      Al  0.13999119  0.19613473  0.90316281     1.49000
C248        C  0.19118780  0.20194799  0.92660333     0.92600
O249        O  0.21157811  0.11661821  0.88711457    -0.80900
O250        O  0.15024741  0.12727594  0.84261812    -0.74400
Al251      Al  0.19575102  0.17625212  0.87749316     1.90100
O252        O  0.17964407  0.07012617  0.87219894    -0.73500
O253        O  0.10782278  0.12995099  0.87172071    -0.73400
O254        O  0.14037958  0.08120730  0.90342844    -0.79000
O255        O  0.11170304  0.20543301  0.88044615    -0.77200
O256        O  0.16068175  0.15984776  0.88460855    -1.13400
O257        O  0.15599436  0.25621948  0.89419918    -0.72600
C258        C  0.17320807  0.26918853  0.87890690     0.98200
C259        C  0.20383394  0.07577919  0.88056085     0.94600
Al260      Al  0.14573257  0.10658331  0.87339579     1.55600
O261        O  0.20464803  0.20033696  0.90777151    -0.77200
C262        C  0.09750188  0.17144804  0.87217995     0.98700
C263        C  0.17264907  0.14211327  0.83338658     0.93600
O264        O  0.19299719  0.15594285  0.84579925    -0.82500
O265        O  0.29499048  0.36410175  0.14881531    -0.82000
C266        C  0.35208786  0.42580214  0.07198968     0.97400
O267        O  0.34097234  0.44365800  0.08970498    -0.71100
O268        O  0.30525697  0.45016226  0.12386730    -0.74700
Al269      Al  0.33933714  0.41482457  0.11927725     1.49000
C270        C  0.28078881  0.44484100  0.11583423     0.92600
O271        O  0.27727200  0.32245113  0.08780674    -0.80900
O272        O  0.32705449  0.26729930  0.09638191    -0.74400
Al273      Al  0.28945151  0.34510916  0.11727435     1.90100
O274        O  0.31316873  0.33558087  0.06498180    -0.73500
O275        O  0.37280883  0.31765680  0.10694101    -0.73400
O276        O  0.35958393  0.38241281  0.07202536    -0.79000
O277        O  0.37733751  0.39219488  0.11743053    -0.77200
O278        O  0.32346741  0.36251186  0.10792340    -1.13400
O279        O  0.33862637  0.39029618  0.14963089    -0.72600
C280        C  0.31698004  0.37525386  0.15982644     0.98200
C281        C  0.28788194  0.32413060  0.06786890     0.94600
Al282      Al  0.34179303  0.32844899  0.08697359     1.55600
O283        O  0.27310216  0.40437702  0.10896302    -0.77200
C284        C  0.38758231  0.35081756  0.11522769     0.98700
C285        C  0.31175097  0.25304231  0.11279408     0.93600
O286        O  0.30117782  0.28311210  0.12640475    -0.82500
O287        O  0.29494960  0.65613747  0.84232316    -0.82000
C288        C  0.35472061  0.60170159  0.92021388     0.97400
O289        O  0.34251859  0.58184639  0.90344106    -0.71100
O290        O  0.30543715  0.57096295  0.87049465    -0.74700
Al291      Al  0.33963232  0.60667645  0.87297419     1.49000
C292        C  0.28067643  0.57785498  0.87739689     0.92600
O293        O  0.27865595  0.70375724  0.90309079    -0.80900
O294        O  0.32886448  0.75685061  0.89240255    -0.74400
Al295      Al  0.28998012  0.67799721  0.87363430     1.90100
O296        O  0.31558073  0.69232483  0.92518517    -0.73500
O297        O  0.37393458  0.70520772  0.88206723    -0.73400
O298        O  0.36168324  0.64508728  0.91869766    -0.79000
O299        O  0.37801775  0.62973482  0.87312003    -0.77200
O300        O  0.32425125  0.66073825  0.88291874    -1.13400
O301        O  0.33749258  0.62568874  0.84168175    -0.72600
C302        C  0.31569254  0.63958577  0.83123319     0.98200
C303        C  0.29044462  0.70496553  0.92268808     0.94600
Al304      Al  0.34345223  0.69681005  0.90268177     1.55600
O305        O  0.27298198  0.61925377  0.88296415    -0.77200
C306        C  0.38872736  0.67099354  0.87500936     0.98700
C307        C  0.31303445  0.77032018  0.87617963     0.93600
O308        O  0.30164201  0.73973383  0.86323141    -0.82500
O309        O  0.68295847  0.27149708  0.12340810    -0.82000
C310        C  0.62757621  0.41377065  0.07176856     0.97400
O311        O  0.62100355  0.37002768  0.07165917    -0.71100
O312        O  0.66687520  0.32454169  0.06258382    -0.74700
Al313      Al  0.63985536  0.31635989  0.08562331     1.49000
C314        C  0.69149396  0.30910707  0.06380224     0.92600
O315        O  0.70965258  0.39353690  0.10420114    -0.80900
O316        O  0.64788500  0.37655564  0.14904463    -0.74400
Al317      Al  0.69418936  0.33319179  0.11331646     1.90100
O318        O  0.67820240  0.43758737  0.12141044    -0.73500
O319        O  0.60587005  0.37757432  0.11871191    -0.73400
O320        O  0.63950498  0.43150484  0.08925188    -0.79000
O321        O  0.61025759  0.30424416  0.10640828    -0.77200
O322        O  0.65935498  0.35017026  0.10596116    -1.13400
O323        O  0.65496021  0.25533366  0.09441505    -0.72600
C324        C  0.67035545  0.24154673  0.11090767     0.98200
C325        C  0.70221569  0.43333274  0.11238728     0.94600
Al326      Al  0.64399224  0.40159074  0.11861473     1.55600
O327        O  0.70409284  0.30847836  0.08308353    -0.77200
C328        C  0.59559337  0.33644379  0.11539567     0.98700
C329        C  0.67095942  0.36342026  0.15783589     0.93600
O330        O  0.69143460  0.35247075  0.14502347    -0.82500
O331        O  0.68687688  0.72401481  0.86232376    -0.82000
C332        C  0.63310802  0.58860660  0.91944131     0.97400
O333        O  0.62705382  0.63247260  0.91829772    -0.71100
O334        O  0.67422713  0.67750774  0.92457603    -0.74700
Al335      Al  0.64567450  0.68395437  0.90233216     1.49000
C336        C  0.69956664  0.68832587  0.92148041     0.92600
O337        O  0.71447141  0.60354271  0.88132186    -0.80900
O338        O  0.64902319  0.61481519  0.84069920    -0.74400
Al339      Al  0.69812755  0.66279687  0.87249419     1.90100
O340        O  0.68108221  0.55725870  0.86842467    -0.73500
O341        O  0.61004114  0.61819098  0.87310049    -0.73400
O342        O  0.64499977  0.56851776  0.90255359    -0.79000
O343        O  0.61412963  0.69367479  0.88216835    -0.77200
O344        O  0.66386050  0.64714184  0.88216939    -1.13400
O345        O  0.66161051  0.74414986  0.89208953    -0.72600
C346        C  0.67780831  0.75572742  0.87573392     0.98200
C347        C  0.70607374  0.56295897  0.87501883     0.94600
Al348      Al  0.64756426  0.59413542  0.87201032     1.55600
O349        O  0.71049806  0.68772456  0.90163124    -0.77200
C350        C  0.59915738  0.65893719  0.87550637     0.98700
C351        C  0.67081318  0.62875990  0.83021983     0.93600
O352        O  0.69234361  0.64182701  0.84138065    -0.82500
C353        C  0.62317030  0.44336234  0.05064912    -0.12100
C354        C  0.60300924  0.43178040  0.03355084     0.03300
C355        C  0.60277137  0.45639127  0.01241518    -0.12700
C356        C  0.62234018  0.49253869  0.00779567     0.18200
C357        C  0.64157529  0.50564963  0.02511553    -0.09700
C358        C  0.64179703  0.48136404  0.04628791    -0.02700
H359        H  0.58763750  0.44652969  0.99929064     0.04700
C360        C  0.62338055  0.51467561  0.98450058     0.20200
H361        H  0.65751403  0.49093867  0.05899554     0.09900
C362        C  0.60563333  0.55295990  0.97910462    -0.16000
C363        C  0.60740915  0.57629088  0.95767364     0.02900
C364        C  0.62751607  0.56150539  0.94115451    -0.11400
C365        C  0.64441997  0.52181133  0.94641486    -0.01400
C366        C  0.64242946  0.49846426  0.96775317    -0.06600
H367        H  0.59054146  0.56510104  0.99174384     0.05900
H368        H  0.66000842  0.50977079  0.93420980     0.09300
Br369      Br  0.66865768  0.55536696  0.02019804    -0.06300
Br370      Br  0.57494261  0.38339290  0.03792637    -0.03200
Br371      Br  0.58115535  0.62700745  0.95205812    -0.00400
Br372      Br  0.66653846  0.44496882  0.97351858    -0.04700
C373        C  0.41915371  0.67799003  0.87020868    -0.12100
C374        C  0.43580403  0.71094112  0.88274349     0.03300
C375        C  0.46502188  0.71130218  0.88003463    -0.12700
C376        C  0.47838815  0.67979867  0.86485834     0.18200
C377        C  0.46173108  0.64862652  0.85149778    -0.09700
C378        C  0.43251899  0.64776983  0.85432799    -0.02700
H379        H  0.47754463  0.73476000  0.89075374     0.04700
C380        C  0.50952682  0.67518749  0.86581191     0.20200
H381        H  0.42023521  0.62255847  0.84437934     0.09900
C382        C  0.52083855  0.63183963  0.87343189    -0.16000
C383        C  0.54970294  0.62593641  0.87643435     0.02900
C384        C  0.56836933  0.66424274  0.87181510    -0.11400
C385        C  0.55703839  0.70799787  0.86436283    -0.01400
C386        C  0.52792023  0.71363572  0.86129500    -0.06600
H387        H  0.50692568  0.60250942  0.87771677     0.05900
H388        H  0.57085803  0.73783433  0.86080026     0.09300
Br389      Br  0.47793918  0.60601710  0.82934845    -0.06300
Br390      Br  0.42083176  0.75318892  0.90567626    -0.03200
Br391      Br  0.56140305  0.56535107  0.88880938    -0.00400
Br392      Br  0.51429608  0.77402848  0.85044333    -0.04700
C393        C  0.41766464  0.34299003  0.12077642    -0.12100
C394        C  0.42908777  0.29755910  0.12587423     0.03300
C395        C  0.45815915  0.29244470  0.12888961    -0.12700
C396        C  0.47622465  0.33184153  0.12693419     0.18200
C397        C  0.46480911  0.37709228  0.12208380    -0.09700
C398        C  0.43588006  0.38239253  0.11943155    -0.02700
H399        H  0.46680035  0.25739337  0.13232991     0.04700
C400        C  0.50701692  0.32475463  0.12711964     0.20200
H401        H  0.42776651  0.41741475  0.11514189     0.09900
C402        C  0.51928306  0.30049911  0.10862570    -0.16000
C403        C  0.54833060  0.30108871  0.10535634     0.02900
C404        C  0.56568429  0.32720495  0.12065816    -0.11400
C405        C  0.55350162  0.34846981  0.14014335    -0.01400
C406        C  0.52444937  0.34650438  0.14370360    -0.06600
H407        H  0.50603937  0.28318405  0.09592557     0.05900
H408        H  0.56656020  0.36745776  0.15239752     0.09300
Br409      Br  0.48795540  0.43212317  0.11654027    -0.06300
Br410      Br  0.40640722  0.24125835  0.12918489    -0.03200
Br411      Br  0.56216692  0.26955094  0.07827411    -0.00400
Br412      Br  0.50931739  0.37455076  0.17115007    -0.04700
C413        C  0.35590686  0.45509095  0.05082124    -0.12100
C414        C  0.33665016  0.49130428  0.04446606     0.03300
C415        C  0.33951812  0.51486020  0.02327033    -0.12700
C416        C  0.36115649  0.50306732  0.00801436     0.18200
C417        C  0.38070849  0.46791070  0.01441640    -0.09700
C418        C  0.37794488  0.44414222  0.03560585    -0.02700
H419        H  0.32422327  0.54157532  0.01830592     0.04700
C420        C  0.36174740  0.52587757  0.98495229     0.20200
H421        H  0.39287321  0.41647786  0.04004969     0.09900
C422        C  0.37743820  0.56754652  0.98150331    -0.16000
C423        C  0.37659246  0.59196207  0.96034631     0.02900
C424        C  0.35952617  0.57463638  0.94207307    -0.11400
C425        C  0.34462699  0.53177064  0.94554111    -0.01400
C426        C  0.34556350  0.50766828  0.96669422    -0.06600
H427        H  0.39008662  0.58154908  0.99549413     0.05900
H428        H  0.33134333  0.51756835  0.93200662     0.09300
Br429      Br  0.41084837  0.45023569  0.99433584    -0.06300
Br430      Br  0.30436622  0.50757731  0.06260683    -0.03200
Br431      Br  0.39950305  0.64825013  0.95798552    -0.00400
Br432      Br  0.32369986  0.45063232  0.97019514    -0.04700
C433        C  0.30466686  0.82153951  0.87499120    -0.12100
C434        C  0.29431174  0.84359260  0.85474185     0.03300
C435        C  0.28159013  0.88879404  0.85598118    -0.12700
C436        C  0.27872944  0.91255045  0.87717295     0.18200
C437        C  0.29013942  0.89160731  0.89715220    -0.09700
C438        C  0.30321291  0.84700114  0.89590633    -0.02700
H439        H  0.27282252  0.90459192  0.84049083     0.04700
C440        C  0.26046740  0.95536346  0.87875483     0.20200
H441        H  0.31060911  0.83081380  0.91178931     0.09900
C442        C  0.23219201  0.94874620  0.88442210    -0.16000
C443        C  0.21369748  0.98737760  0.88571260     0.02900
C444        C  0.22340585  0.03436455  0.88154298    -0.11400
C445        C  0.25205879  0.04108482  0.87653378    -0.01400
C446        C  0.27047178  0.00201835  0.87491234    -0.06600
H447        H  0.22438670  0.91302906  0.88769649     0.05900
H448        H  0.25997248  0.07664487  0.87308551     0.09300
Br449      Br  0.28642123  0.92100038  0.92686472    -0.06300
Br450      Br  0.29664293  0.81365329  0.82507095    -0.03200
Br451      Br  0.17562418  0.97293879  0.89378573    -0.00400
Br452      Br  0.30890766  0.01364574  0.86701280    -0.04700
C453        C  0.26108874  0.53634797  0.87882727    -0.12100
C454        C  0.23165696  0.54040490  0.87586591     0.03300
C455        C  0.21469345  0.49927669  0.87604224    -0.12700
C456        C  0.22644405  0.45384146  0.87916524     0.18200
C457        C  0.25557954  0.44979906  0.88245510    -0.09700
C458        C  0.27255042  0.49059059  0.88222212    -0.02700
H459        H  0.19227911  0.50267759  0.87341034     0.04700
C460        C  0.20844952  0.41054873  0.87855165     0.20200
H461        H  0.29495276  0.48637835  0.88465135     0.09900
C462        C  0.20432181  0.38660095  0.85755768    -0.16000
C463        C  0.19116933  0.34173213  0.85690022     0.02900
C464        C  0.18172555  0.32018474  0.87751933    -0.11400
C465        C  0.18432650  0.34580410  0.89829498    -0.01400
C466        C  0.19774489  0.39029226  0.89895492    -0.06600
H467        H  0.21230740  0.40208478  0.84172616     0.05900
H468        H  0.17752947  0.32983225  0.91439730     0.09300
Br469      Br  0.27313693  0.38892222  0.88707033    -0.06300
Br470      Br  0.21339745  0.60020742  0.86992150    -0.03200
Br471      Br  0.18659014  0.31162799  0.82745670    -0.00400
Br472      Br  0.20292450  0.42047038  0.92833811    -0.04700
C473        C  0.20496863  0.21969481  0.94762896    -0.12100
C474        C  0.19002594  0.24646985  0.96427231     0.03300
C475        C  0.20404792  0.26450513  0.98343145    -0.12700
C476        C  0.23275465  0.25687321  0.98635766     0.18200
C477        C  0.24776181  0.23020304  0.96999062    -0.09700
C478        C  0.23385015  0.21213392  0.95065940    -0.02700
H479        H  0.19255596  0.28514886  0.99606070     0.04700
C480        C  0.24620590  0.27588024  0.00714469     0.20200
H481        H  0.24557117  0.19178933  0.93807581     0.09900
C482        C  0.23979962  0.25489927  0.02841375    -0.16000
C483        C  0.25212389  0.27151948  0.04866803     0.02900
C484        C  0.27134149  0.30987565  0.04766111    -0.11400
C485        C  0.27702595  0.33177004  0.02633950    -0.01400
C486        C  0.26433243  0.31538274  0.00615820    -0.06600
H487        H  0.22548346  0.22484418  0.02916682     0.05900
H488        H  0.29155023  0.36150588  0.02535773     0.09300
Br489      Br  0.28693927  0.21648661  0.97370495    -0.06300
Br490      Br  0.15102230  0.26311846  0.96160964    -0.03200
Br491      Br  0.24327693  0.23765865  0.07657653    -0.00400
Br492      Br  0.27181593  0.34833978  0.97776787    -0.04700
C493        C  0.21426660  0.81534249  0.04444179    -0.12100
C494        C  0.23460310  0.77868635  0.04462691     0.03300
C495        C  0.24753817  0.76535963  0.02403745    -0.12700
C496        C  0.24069946  0.78804551  0.00323439     0.18200
C497        C  0.22159996  0.82607858  0.00313717    -0.09700
C498        C  0.20837425  0.83929705  0.02363447    -0.02700
H499        H  0.26235925  0.73606373  0.02409281     0.04700
C500        C  0.25274340  0.76965486  0.98170908     0.20200
H501        H  0.19306787  0.86785187  0.02324531     0.09900
C502        C  0.23625359  0.74064915  0.96733118    -0.16000
C503        C  0.24781267  0.71926720  0.94772836     0.02900
C504        C  0.27638048  0.72644924  0.94266282    -0.11400
C505        C  0.29253859  0.75649086  0.95685382    -0.01400
C506        C  0.28091724  0.77823467  0.97615612    -0.06600
H507        H  0.21449665  0.73391524  0.97166026     0.05900
H508        H  0.31434810  0.76350953  0.95277800     0.09300
Br509      Br  0.21314422  0.86048218  0.97535061    -0.06300
Br510      Br  0.24385370  0.74219375  0.07169590    -0.03200
Br511      Br  0.22428418  0.67854782  0.92946460    -0.00400
Br512      Br  0.30410348  0.81995273  0.99421644    -0.04700
C513        C  0.12062745  0.07376073  0.94101065    -0.12100
C514        C  0.10142848  0.08955659  0.95802778     0.03300
C515        C  0.09992766  0.06588953  0.97938486    -0.12700
C516        C  0.11695636  0.02628021  0.98403040     0.18200
C517        C  0.13473632  0.00889946  0.96672369    -0.09700
C518        C  0.13657328  0.03263257  0.94560370    -0.02700
H519        H  0.08581440  0.07892283  0.99256107     0.04700
C520        C  0.11731160  0.00452360  0.00727261     0.20200
H521        H  0.15148137  0.01977817  0.93310976     0.09900
C522        C  0.09824094  0.96809310  0.01266631    -0.16000
C523        C  0.10069044  0.94230089  0.03332625     0.02900
C524        C  0.12260857  0.95302693  0.04897404    -0.11400
C525        C  0.14072717  0.99127722  0.04396543    -0.01400
C526        C  0.13832576  0.01671998  0.02328629    -0.06600
H527        H  0.08191909  0.95876608  0.00044388     0.05900
H528        H  0.15770121  0.00006463  0.05567853     0.09300
Br529      Br  0.15768823  0.95361211  0.97149583    -0.06300
Br530      Br  0.07638400  0.14238826  0.95341330    -0.03200
Br531      Br  0.07323237  0.89357390  0.03925641    -0.00400
Br532      Br  0.16516115  0.06619272  0.01700683    -0.04700
C533        C  0.18110508  0.70171653  0.11261219    -0.12100
C534        C  0.19083865  0.68217666  0.13365290     0.03300
C535        C  0.20420652  0.63767953  0.13384212    -0.12700
C536        C  0.20870385  0.61228199  0.11332017     0.18200
C537        C  0.19728224  0.63012263  0.09258772    -0.09700
C538        C  0.18338813  0.67411797  0.09243949    -0.02700
H539        H  0.21225228  0.62370303  0.14999255     0.04700
C540        C  0.22696018  0.56929742  0.11374441     0.20200
H541        H  0.17626837  0.68838889  0.07605837     0.09900
C542        C  0.21615877  0.52468528  0.10728931    -0.16000
C543        C  0.23308187  0.48372579  0.10734733     0.02900
C544        C  0.26145944  0.48671017  0.11473260    -0.11400
C545        C  0.27204808  0.53172084  0.12112371    -0.01400
C546        C  0.25531442  0.57258917  0.12042499    -0.06600
H547        H  0.19441309  0.52178737  0.10199769     0.05900
H548        H  0.29374302  0.53559298  0.12638693     0.09300
Br549      Br  0.20264872  0.59858382  0.06356065    -0.06300
Br550      Br  0.18705247  0.71459858  0.16264178    -0.03200
Br551      Br  0.21566495  0.42588475  0.09671510    -0.00400
Br552      Br  0.27280472  0.63254334  0.12760425    -0.04700
C553        C  0.30306540  0.20184624  0.11459636    -0.12100
C554        C  0.30563096  0.16932564  0.09592978     0.03300
C555        C  0.29073133  0.12609050  0.09623263    -0.12700
C556        C  0.27332290  0.11394352  0.11479643     0.18200
C557        C  0.27279585  0.14390908  0.13424680    -0.09700
C558        C  0.28740097  0.18732561  0.13399067    -0.02700
H559        H  0.29180585  0.10265925  0.08141442     0.04700
C560        C  0.25512154  0.07091906  0.11322757     0.20200
H561        H  0.28544707  0.21076021  0.14873624     0.09900
C562        C  0.26726268  0.02539112  0.11314034    -0.16000
C563        C  0.25057972  0.98408234  0.11244073     0.02900
C564        C  0.22089429  0.98794939  0.11209107    -0.11400
C565        C  0.20896496  0.03380299  0.11132837    -0.01400
C566        C  0.22571872  0.07485909  0.11153959    -0.06600
H567        H  0.28988351  0.02197354  0.11395329     0.05900
H568        H  0.18639387  0.03787142  0.11032613     0.09300
Br569      Br  0.25194155  0.12735205  0.16142075    -0.06300
Br570      Br  0.32711246  0.18206561  0.06855064    -0.03200
Br571      Br  0.27006659  0.92411687  0.11291495    -0.00400
Br572      Br  0.20742366  0.13550916  0.10857147    -0.04700
C573        C  0.92036144  0.17286207  0.87304482    -0.12100
C574        C  0.93965772  0.17351334  0.89152914     0.03300
C575        C  0.96815063  0.18033874  0.88722127    -0.12700
C576        C  0.97811049  0.18670763  0.86469595     0.18200
C577        C  0.95893310  0.18629736  0.84615350    -0.09700
C578        C  0.93022813  0.17913975  0.85041019    -0.02700
H579        H  0.98281060  0.17934221  0.90153300     0.04700
C580        C  0.00886801  0.18885583  0.86132879     0.20200
H581        H  0.91558279  0.17892539  0.83609200     0.09900
C582        C  0.02249734  0.14915777  0.85196185    -0.16000
C583        C  0.05164079  0.14409020  0.85367562     0.02900
C584        C  0.06777052  0.17932195  0.86521935    -0.11400
C585        C  0.05415750  0.22105258  0.87271911    -0.01400
C586        C  0.02502386  0.22587255  0.87095021    -0.06600
H587        H  0.01020669  0.12058460  0.84442265     0.05900
H588        H  0.06592500  0.24902721  0.88125358     0.09300
Br589      Br  0.97099797  0.19650070  0.81499073    -0.06300
Br590      Br  0.92874713  0.16122546  0.92290592    -0.03200
Br591      Br  0.06736300  0.08730626  0.84042406    -0.00400
Br592      Br  0.00796812  0.28254705  0.88299404    -0.04700
C593        C  0.76596651  0.20757471  0.93891730    -0.12100
C594        C  0.76151444  0.25572904  0.94482423     0.03300
C595        C  0.75023366  0.26737726  0.96621278    -0.12700
C596        C  0.74335123  0.23174154  0.98213212     0.18200
C597        C  0.74697843  0.18344690  0.97618750    -0.09700
C598        C  0.75830053  0.17158631  0.95459978    -0.02700
H599        H  0.74685878  0.30455045  0.97051382     0.04700
C600        C  0.73038980  0.24664460  0.00398931     0.20200
H601        H  0.76225856  0.13450790  0.95048355     0.09900
C602        C  0.70162866  0.25555878  0.00400803    -0.16000
C603        C  0.68856376  0.27597416  0.02306495     0.02900
C604        C  0.70468422  0.28872267  0.04281080    -0.11400
C605        C  0.73360108  0.27849155  0.04285804    -0.01400
C606        C  0.74647784  0.25772970  0.02361893    -0.06600
H607        H  0.68927460  0.24715074  0.98882128     0.05900
H608        H  0.74631899  0.28692046  0.05781779     0.09300
Br609      Br  0.73746289  0.13319188  0.99727686    -0.06300
Br610      Br  0.77036892  0.30722982  0.92427100    -0.03200
Br611      Br  0.64853075  0.28322698  0.02029291    -0.00400
Br612      Br  0.78604939  0.24567851  0.02462122    -0.04700
C613        C  0.72590396  0.52225422  0.87406417    -0.12100
C614        C  0.71746084  0.47516814  0.87940950     0.03300
C615        C  0.73638277  0.43741305  0.87692358    -0.12700
C616        C  0.76375077  0.44527685  0.86892166     0.18200
C617        C  0.77218688  0.49199103  0.86328095    -0.09700
C618        C  0.75343679  0.53009192  0.86614703    -0.02700
H619        H  0.72972235  0.40153954  0.88131493     0.04700
C620        C  0.78269400  0.40363125  0.86661842     0.20200
H621        H  0.76010711  0.56577780  0.86144692     0.09900
C622        C  0.77726592  0.37025868  0.84922305    -0.16000
C623        C  0.79009115  0.32539593  0.84953306     0.02900
C624        C  0.80902799  0.31331550  0.86742001    -0.11400
C625        C  0.81665059  0.34865218  0.88342346    -0.01400
C626        C  0.80320269  0.39320094  0.88342209    -0.06600
H627        H  0.76164712  0.37806254  0.83613947     0.05900
H628        H  0.83072099  0.33986503  0.89750798     0.09300
Br629      Br  0.80854772  0.50483570  0.85059336    -0.06300
Br630      Br  0.68080757  0.45997960  0.89099105    -0.03200
Br631      Br  0.77936583  0.28103349  0.82591845    -0.00400
Br632      Br  0.81044223  0.43588593  0.90856505    -0.04700
C633        C  0.69025067  0.80458825  0.87445485    -0.12100
C634        C  0.67757732  0.84553292  0.88414990     0.03300
C635        C  0.69261949  0.88875973  0.88539898    -0.12700
C636        C  0.72036656  0.89193784  0.87738497     0.18200
C637        C  0.73296413  0.85130460  0.86777553    -0.09700
C638        C  0.71792221  0.80860169  0.86613783    -0.02700
H639        H  0.68266131  0.91998994  0.89269535     0.04700
C640        C  0.73601941  0.93776892  0.87855869     0.20200
H641        H  0.72857295  0.77764567  0.85924067     0.09900
C642        C  0.74963386  0.95112656  0.89909300    -0.16000
C643        C  0.76681589  0.99193705  0.89987242     0.02900
C644        C  0.77048454  0.02008249  0.87987897    -0.11400
C645        C  0.75612931  0.00740943  0.85962022    -0.01400
C646        C  0.73922128  0.96657229  0.85879482    -0.06600
H647        H  0.74723277  0.92934465  0.91443217     0.05900
H648        H  0.75861412  0.02881745  0.84415731     0.09300
Br649      Br  0.77128686  0.85191898  0.85763667    -0.06300
Br650      Br  0.63977565  0.84503478  0.89545399    -0.03200
Br651      Br  0.78360798  0.00915695  0.92880079    -0.00400
Br652      Br  0.72137467  0.95079597  0.83011201    -0.04700
C653        C  0.91580850  0.84214310  0.11859180    -0.12100
C654        C  0.92921006  0.80006717  0.12626574     0.03300
C655        C  0.95868881  0.79800777  0.12730873    -0.12700
C656        C  0.97523487  0.83722700  0.12059417     0.18200
C657        C  0.96178645  0.87884185  0.11255307    -0.09700
C658        C  0.93250377  0.88130835  0.11209604    -0.02700
H659        H  0.96875330  0.76566208  0.13333900     0.04700
C660        C  0.00640942  0.83390637  0.12103595     0.20200
H661        H  0.92272231  0.91357107  0.10564487     0.09900
C662        C  0.02005276  0.80302555  0.10571446    -0.16000
C663        C  0.04936444  0.80379857  0.10329564     0.02900
C664        C  0.06566115  0.83660175  0.11625295    -0.11400
C665        C  0.05194648  0.86523785  0.13263221    -0.01400
C666        C  0.02276290  0.86360301  0.13531976    -0.06600
H667        H  0.00772002  0.77954305  0.09486003     0.05900
H668        H  0.06393783  0.88984791  0.14314745     0.09300
Br669      Br  0.98236640  0.93207165  0.10021048    -0.06300
Br670      Br  0.90838497  0.74524326  0.13632718    -0.03200
Br671      Br  0.06505720  0.76166303  0.08065042    -0.00400
Br672      Br  0.00613405  0.90287464  0.15866237    -0.04700
C673        C  0.85468775  0.95259407  0.05340364    -0.12100
C674        C  0.88022550  0.95402086  0.04118666     0.03300
C675        C  0.88246387  0.98199345  0.02118697    -0.12700
C676        C  0.85948373  0.00843628  0.01304475     0.18200
C677        C  0.83395233  0.00677750  0.02522129    -0.09700
C678        C  0.83188445  0.97962685  0.04538975    -0.02700
H679        H  0.90212007  0.98285096  0.01183290     0.04700
C680        C  0.86179576  0.03505497  0.99105621     0.20200
H681        H  0.81195657  0.97804517  0.05434971     0.09900
C682        C  0.86299847  0.00949424  0.97037171    -0.16000
C683        C  0.86218056  0.03290010  0.94901498     0.02900
C684        C  0.85982891  0.08337909  0.94812790    -0.11400
C685        C  0.86014852  0.10884522  0.96906788    -0.01400
C686        C  0.86130849  0.08519105  0.99033781    -0.06600
H687        H  0.86367823  0.97084907  0.97086178     0.05900
H688        H  0.85897984  0.14744408  0.96898812     0.09300
Br689      Br  0.80074760  0.03809503  0.01409917    -0.06300
Br690      Br  0.91280348  0.91987559  0.05145931    -0.03200
Br691      Br  0.86290246  0.99251323  0.92226226    -0.00400
Br692      Br  0.86201947  0.12270872  0.01799289    -0.04700
C693        C  0.77317228  0.81172861  0.04172925    -0.12100
C694        C  0.78628654  0.81797915  0.01994974     0.03300
C695        C  0.77370926  0.79938456  0.00017452    -0.12700
C696        C  0.74767014  0.77642458  0.00127705     0.18200
C697        C  0.73346742  0.77376141  0.02251423    -0.09700
C698        C  0.74631612  0.79098689  0.04251691    -0.02700
H699        H  0.78455139  0.80223626  0.98380698     0.04700
C700        C  0.73641201  0.75362777  0.98028304     0.20200
H701        H  0.73555830  0.78665751  0.05883519     0.09900
C702        C  0.73201315  0.70400304  0.98020225    -0.16000
C703        C  0.72091414  0.68132030  0.96077486     0.02900
C704        C  0.71518519  0.70818972  0.94085796    -0.11400
C705        C  0.72055612  0.75733214  0.94056960    -0.01400
C706        C  0.73075616  0.78033821  0.96017258    -0.06600
H707        H  0.73677666  0.68303945  0.99545098     0.05900
H708        H  0.71535411  0.77831773  0.92540616     0.09300
Br709      Br  0.69645939  0.74720358  0.02506248    -0.06300
Br710      Br  0.82109232  0.85162500  0.01528556    -0.03200
Br711      Br  0.71367772  0.61399504  0.96207468    -0.00400
Br712      Br  0.73434858  0.84857817  0.95908102    -0.04700
C713        C  0.75617346  0.97655715  0.11676166    -0.12100
C714        C  0.72665574  0.97074724  0.11515993     0.03300
C715        C  0.70905730  0.01088017  0.11554510    -0.12700
C716        C  0.72023595  0.05692761  0.11767929     0.18200
C717        C  0.74942513  0.06274316  0.11974955    -0.09700
C718        C  0.76704726  0.02293983  0.11933569    -0.02700
H719        H  0.68656608  0.00620900  0.11399714     0.04700
C720        C  0.70175302  0.09920447  0.11620355     0.20200
H721        H  0.78948865  0.02852005  0.12061290     0.09900
C722        C  0.69414044  0.12353253  0.13640024    -0.16000
C723        C  0.68170883  0.16883643  0.13519722     0.02900
C724        C  0.67673345  0.19020040  0.11351296    -0.11400
C725        C  0.68226071  0.16395404  0.09340301    -0.01400
C726        C  0.69487486  0.11902739  0.09461169    -0.06600
H727        H  0.69911300  0.10826253  0.15309858     0.05900
H728        H  0.67874447  0.17990998  0.07659288     0.09300
Br729      Br  0.76619823  0.12482858  0.12230551    -0.06300
Br730      Br  0.70868470  0.90946760  0.11332454    -0.03200
Br731      Br  0.67219554  0.20028904  0.16350503    -0.00400
Br732      Br  0.70505150  0.08824651  0.06629489    -0.04700
C733        C  0.80024298  0.69334690  0.11009899    -0.12100
C734        C  0.79538742  0.66644154  0.08982020     0.03300
C735        C  0.78184364  0.62201255  0.09113916    -0.12700
C736        C  0.77259642  0.60360666  0.11231709     0.18200
C737        C  0.77846053  0.62924198  0.13264920    -0.09700
C738        C  0.79204015  0.67366483  0.13142242    -0.02700
H739        H  0.77720326  0.60279936  0.07538377     0.04700
C740        C  0.75483655  0.55987219  0.11252732     0.20200
H741        H  0.79525038  0.69377675  0.14715002     0.09900
C742        C  0.76717198  0.51472954  0.11012041    -0.16000
C743        C  0.75073894  0.47297339  0.10983548     0.02900
C744        C  0.72114209  0.47598258  0.11178088    -0.11400
C745        C  0.70901251  0.52158073  0.11401697    -0.01400
C746        C  0.72545987  0.56302431  0.11432389    -0.06600
H747        H  0.78976522  0.51194809  0.10865894     0.05900
H748        H  0.68645492  0.52524582  0.11539099     0.09300
Br749      Br  0.76722287  0.60576642  0.16234972    -0.06300
Br750      Br  0.80323950  0.69065617  0.05947464    -0.03200
Br751      Br  0.77039870  0.41339609  0.10786798    -0.00400
Br752      Br  0.70675942  0.62343461  0.11669512    -0.04700
C753        C  0.68089177  0.62562191  0.68153764    -0.12100
C754        C  0.69643158  0.65914328  0.69478021     0.03300
C755        C  0.69470394  0.65838217  0.71889099    -0.12700
C756        C  0.67869574  0.62386666  0.73044558     0.18200
C757        C  0.66421416  0.58933241  0.71746115    -0.09700
C758        C  0.66513525  0.59072846  0.69334719    -0.02700
H759        H  0.70608634  0.68490875  0.72876648     0.04700
C760        C  0.67688819  0.62510409  0.75599284     0.20200
H761        H  0.65353150  0.56393441  0.68384013     0.09900
C762        C  0.65084846  0.63368100  0.76647712    -0.16000
C763        C  0.64822633  0.63530399  0.79054010     0.02900
C764        C  0.67208768  0.62828825  0.80464169    -0.11400
C765        C  0.69823080  0.62070227  0.79403051    -0.01400
C766        C  0.70078506  0.61902465  0.77001408    -0.06600
H767        H  0.63246299  0.63956759  0.75582312     0.05900
H768        H  0.71682379  0.61522112  0.80449017     0.09300
Br769      Br  0.64391515  0.53816844  0.73187952    -0.06300
Br770      Br  0.72123438  0.70634592  0.68184535    -0.03200
Br771      Br  0.61189497  0.65019031  0.80284061    -0.00400
Br772      Br  0.73722241  0.60653799  0.75732305    -0.04700
C773        C  0.68505154  0.35155809  0.30581936    -0.12100
C774        C  0.68737710  0.39473459  0.29335072     0.03300
C775        C  0.68579692  0.39438879  0.26926408    -0.12700
C776        C  0.68172999  0.35163128  0.25724422     0.18200
C777        C  0.68036477  0.30831694  0.26957033    -0.09700
C778        C  0.68219138  0.30849948  0.29370142    -0.02700
H779        H  0.68739332  0.42773453  0.25984818     0.04700
C780        C  0.67882908  0.35334841  0.23185873     0.20200
H781        H  0.68053105  0.27508440  0.30305175     0.09900
C782        C  0.70271319  0.36093401  0.21832428    -0.16000
C783        C  0.70069238  0.36487404  0.19430066     0.02900
C784        C  0.67418975  0.36076093  0.18331685    -0.11400
C785        C  0.65023355  0.35390405  0.19709378    -0.01400
C786        C  0.65238391  0.35041627  0.22114194    -0.06600
H787        H  0.72303533  0.36447893  0.22656820     0.05900
H788        H  0.62970306  0.35112005  0.18915204     0.09300
Br789      Br  0.67578636  0.24834674  0.25413417    -0.06300
Br790      Br  0.69379283  0.45502038  0.30818992    -0.03200
Br791      Br  0.73482586  0.37923933  0.17804332    -0.00400
Br792      Br  0.61862240  0.34334754  0.23881984    -0.04700
C793        C  0.63599423  0.41582032  0.44210304    -0.12100
C794        C  0.61529897  0.45167873  0.44344160     0.03300
C795        C  0.61338954  0.47995718  0.46334702    -0.12700
C796        C  0.63174455  0.47263948  0.48199744     0.18200
C797        C  0.65166356  0.43582481  0.48092423    -0.09700
C798        C  0.65371145  0.40799603  0.46111547    -0.02700
H799        H  0.59784426  0.50805565  0.46417444     0.04700
C800        C  0.63148394  0.50521190  0.50196010     0.20200
H801        H  0.66997320  0.38112724  0.46028817     0.09900
C802        C  0.61491164  0.49438045  0.52125723    -0.16000
C803        C  0.61733921  0.52103060  0.54163160     0.02900
C804        C  0.63662391  0.55928535  0.54277645    -0.11400
C805        C  0.65233454  0.57097213  0.52301966    -0.01400
C806        C  0.65002791  0.54418778  0.50283196    -0.06600
H807        H  0.60060550  0.46434242  0.52065121     0.05900
H808        H  0.66731980  0.60007123  0.52351465     0.09300
Br809      Br  0.67723569  0.42338201  0.50584802    -0.06300
Br810      Br  0.58861780  0.46214713  0.41910402    -0.03200
Br811      Br  0.59334195  0.50428605  0.56694725    -0.00400
Br812      Br  0.67376775  0.56044481  0.47724396    -0.04700
C813        C  0.31597198  0.63125342  0.68297678    -0.12100
C814        C  0.29421610  0.60710563  0.69463929     0.03300
C815        C  0.29294009  0.60844846  0.71879925    -0.12700
C816        C  0.31307254  0.63381604  0.73152483     0.18200
C817        C  0.33481851  0.65774013  0.71985429    -0.09700
C818        C  0.33623636  0.65610055  0.69576995    -0.02700
H819        H  0.27639920  0.58931962  0.72769553     0.04700
C820        C  0.31188157  0.63384589  0.75700742     0.20200
H821        H  0.35309601  0.67462463  0.68696971     0.09900
C822        C  0.32591585  0.59797693  0.76927214    -0.16000
C823        C  0.32719623  0.59881833  0.79339919     0.02900
C824        C  0.31423439  0.63635141  0.80571680    -0.11400
C825        C  0.29938895  0.67138667  0.79331619    -0.01400
C826        C  0.29827812  0.67047351  0.76916500    -0.06600
H827        H  0.33620563  0.56943264  0.75997697     0.05900
H828        H  0.28912821  0.70022803  0.80240759     0.09300
Br829      Br  0.36305271  0.69287564  0.73623878    -0.06300
Br830      Br  0.26705882  0.56918896  0.67844045    -0.03200
Br831      Br  0.34583545  0.54636005  0.80830266    -0.00400
Br832      Br  0.27859744  0.72046624  0.75335167    -0.04700
C833        C  0.42609777  0.65717157  0.62194078    -0.12100
C834        C  0.44065271  0.69924586  0.62820602     0.03300
C835        C  0.47017217  0.69932601  0.62921222    -0.12700
C836        C  0.48570904  0.65820093  0.62386297     0.18200
C837        C  0.47121284  0.61615616  0.61804274    -0.09700
C838        C  0.44188434  0.61581667  0.61732206    -0.02700
H839        H  0.48110690  0.73190862  0.63374428     0.04700
C840        C  0.51691209  0.66004774  0.62278304     0.20200
H841        H  0.43143390  0.58322711  0.61208429     0.09900
C842        C  0.53311274  0.63505165  0.63907443    -0.16000
C843        C  0.56242059  0.63139501  0.63681033     0.02900
C844        C  0.57614271  0.65279320  0.61769034    -0.11400
C845        C  0.55975609  0.67968179  0.60209609    -0.01400
C846        C  0.53062089  0.68333321  0.60447271    -0.06600
H847        H  0.52278305  0.61736833  0.65338247     0.05900
H848        H  0.56944267  0.69671659  0.58731820     0.09300
Br849      Br  0.49059341  0.55908773  0.60915112    -0.06300
Br850      Br  0.42161896  0.75735021  0.63588128    -0.03200
Br851      Br  0.58200535  0.59700733  0.66059467    -0.00400
Br852      Br  0.51020891  0.71778503  0.58123443    -0.04700
C853        C  0.31714733  0.37136456  0.18497353    -0.12100
C854        C  0.33432773  0.33791478  0.19625738     0.03300
C855        C  0.33430952  0.33543724  0.22033224    -0.12700
C856        C  0.31760562  0.36651452  0.23335892     0.18200
C857        C  0.30088745  0.40077559  0.22197603    -0.09700
C858        C  0.30036037  0.40231092  0.19788355    -0.02700
H859        H  0.34751739  0.30946272  0.22894885     0.04700
C860        C  0.31937552  0.36465870  0.25875889     0.20200
H861        H  0.28751970  0.42872583  0.18919482     0.09900
C862        C  0.34496638  0.37557457  0.26937784    -0.16000
C863        C  0.34749910  0.37630255  0.29338111     0.02900
C864        C  0.32361791  0.36722307  0.30732896    -0.11400
C865        C  0.29833148  0.35398768  0.29647104    -0.01400
C866        C  0.29620913  0.35195320  0.27245330    -0.06600
H867        H  0.36312097  0.38384714  0.25885689     0.05900
H868        H  0.27997018  0.34530167  0.30664169     0.09300
Br869      Br  0.28015405  0.44845304  0.23846189    -0.06300
Br870      Br  0.35766167  0.29454064  0.17939481    -0.03200
Br871      Br  0.38456004  0.38848919  0.30525225    -0.00400
Br872      Br  0.26161118  0.32996144  0.25918339    -0.04700
C873        C  0.42667359  0.34478048  0.37086400    -0.12100
C874        C  0.43952709  0.29927368  0.36989760     0.03300
C875        C  0.46867952  0.29567031  0.36724307    -0.12700
C876        C  0.48574791  0.33646709  0.36606206     0.18200
C877        C  0.47293133  0.38173410  0.36608332    -0.09700
C878        C  0.44378024  0.38548426  0.36824710    -0.02700
H879        H  0.47826779  0.26064254  0.36687938     0.04700
C880        C  0.51680626  0.33112678  0.36653097     0.20200
H881        H  0.43465059  0.42082648  0.36895193     0.09900
C882        C  0.53323002  0.34874968  0.34827029    -0.16000
C883        C  0.56268518  0.34738492  0.34922391     0.02900
C884        C  0.57629204  0.32703277  0.36863822    -0.11400
C885        C  0.55957093  0.30735867  0.38628278    -0.01400
C886        C  0.53033957  0.30973752  0.38553067    -0.06600
H887        H  0.52305267  0.36463668  0.33339440     0.05900
H888        H  0.56923521  0.29204693  0.40152351     0.09300
Br889      Br  0.49430054  0.43985329  0.36518310    -0.06300
Br890      Br  0.41909629  0.24033275  0.37236857    -0.03200
Br891      Br  0.58266166  0.37411504  0.32348714    -0.00400
Br892      Br  0.51018266  0.28684254  0.41203406    -0.04700
C893        C  0.36975713  0.45823459  0.43895098    -0.12100
C894        C  0.38873045  0.44424728  0.45653902     0.03300
C895        C  0.38942762  0.46924247  0.47740098    -0.12700
C896        C  0.37210520  0.50884908  0.48093431     0.18200
C897        C  0.35571205  0.52617534  0.46252422    -0.09700
C898        C  0.35442119  0.50067145  0.44185017    -0.02700
H899        H  0.40291032  0.45678843  0.49122797     0.04700
C900        C  0.36990039  0.52915147  0.50437460     0.20200
H901        H  0.34039322  0.51311332  0.42839890     0.09900
C902        C  0.39274413  0.55372618  0.51398946    -0.16000
C903        C  0.39110208  0.57289718  0.53626033     0.02900
C904        C  0.36637587  0.56695062  0.54932604    -0.11400
C905        C  0.34401653  0.54066968  0.53997838    -0.01400
C906        C  0.34555787  0.52198733  0.51770402    -0.06600
H907        H  0.41180332  0.55829141  0.50406464     0.05900
H908        H  0.32482929  0.53602247  0.54974397     0.09300
Br909      Br  0.33426064  0.58381381  0.46501979    -0.06300
Br910      Br  0.41458735  0.39213193  0.45332660    -0.03200
Br911      Br  0.42349541  0.60520103  0.54830470    -0.00400
Br912      Br  0.31391647  0.48654879  0.50634707    -0.04700
C913        C  0.17986370  0.13803141  0.68497529    -0.12100
C914        C  0.18697582  0.09712658  0.69789231     0.03300
C915        C  0.18584283  0.09845122  0.72200244    -0.12700
C916        C  0.17721049  0.13986459  0.73349904     0.18200
C917        C  0.16973448  0.18053236  0.72059341    -0.09700
C918        C  0.17144158  0.17957659  0.69649889    -0.02700
H919        H  0.19170028  0.06708145  0.73184736     0.04700
C920        C  0.17620300  0.14003499  0.75896494     0.20200
H921        H  0.16553578  0.21098258  0.68669250     0.09900
C922        C  0.19698273  0.16440721  0.77135646    -0.16000
C923        C  0.19670688  0.16541962  0.79551891     0.02900
C924        C  0.17489379  0.14196908  0.80776364    -0.11400
C925        C  0.15424145  0.11732951  0.79504738    -0.01400
C926        C  0.15486595  0.11600233  0.77096941    -0.06600
H927        H  0.21358013  0.18271315  0.76211520     0.05900
H928        H  0.13742282  0.09866638  0.80382181     0.09300
Br929      Br  0.15588253  0.23720213  0.73515124    -0.06300
Br930      Br  0.19952451  0.03940162  0.68348283    -0.03200
Br931      Br  0.22673011  0.20002585  0.81005252    -0.00400
Br932      Br  0.12579143  0.08167835  0.75515948    -0.04700
C933        C  0.30989325  0.80901048  0.61679395    -0.12100
C934        C  0.29572687  0.82600865  0.63654936     0.03300
C935        C  0.28144635  0.86976242  0.63571439    -0.12700
C936        C  0.28097761  0.89733373  0.61545463     0.18200
C937        C  0.29694478  0.88231576  0.59638662    -0.09700
C938        C  0.31115229  0.83857581  0.59715022    -0.02700
H939        H  0.26995379  0.88167268  0.65074556     0.04700
C940        C  0.26334775  0.94106078  0.61445051     0.20200
H941        H  0.32186400  0.82644431  0.58177417     0.09900
C942        C  0.27086101  0.98088886  0.62767278    -0.16000
C943        C  0.25442387  0.02239183  0.62760922     0.02900
C944        C  0.22968766  0.02468973  0.61399807    -0.11400
C945        C  0.22216669  0.98436188  0.60091617    -0.01400
C946        C  0.23859971  0.94291349  0.60112000    -0.06600
H947        H  0.28956987  0.97949949  0.63829851     0.05900
H948        H  0.20320462  0.98479845  0.59058266     0.09300
Br949      Br  0.29943800  0.91993203  0.56874497    -0.06300
Br950      Br  0.29522375  0.79113417  0.66512671    -0.03200
Br951      Br  0.26637611  0.07288274  0.64774880    -0.00400
Br952      Br  0.22560457  0.88893504  0.58374863    -0.04700
C953        C  0.18232254  0.31635698  0.61974642    -0.12100
C954        C  0.17581714  0.35018866  0.60242537     0.03300
C955        C  0.19004355  0.39407094  0.60185422    -0.12700
C956        C  0.21064859  0.40488611  0.61835164     0.18200
C957        C  0.21487424  0.37339992  0.63698873    -0.09700
C958        C  0.20082460  0.32959576  0.63753476    -0.02700
H959        H  0.18634873  0.41846675  0.58764486     0.04700
C960        C  0.22934922  0.44657678  0.61480007     0.20200
H961        H  0.20603080  0.30417746  0.65099760     0.09900
C962        C  0.21929879  0.49279844  0.61872214    -0.16000
C963        C  0.23711724  0.53248916  0.61676031     0.02900
C964        C  0.26569833  0.52609622  0.61098900    -0.11400
C965        C  0.27542497  0.47980589  0.60640349    -0.01400
C966        C  0.25744684  0.44038424  0.60787996    -0.06600
H967        H  0.19766444  0.49790116  0.62385080     0.05900
H968        H  0.29714468  0.47427262  0.60161442     0.09300
Br969      Br  0.24122681  0.38717778  0.66115761    -0.06300
Br970      Br  0.15072391  0.33631582  0.57740390    -0.03200
Br971      Br  0.22155572  0.59382801  0.62386945    -0.00400
Br972      Br  0.27202607  0.37875449  0.59988706    -0.04700
C973        C  0.22605254  0.22178026  0.55213461    -0.12100
C974        C  0.24968854  0.19915653  0.54245445     0.03300
C975        C  0.26215826  0.21851072  0.52257558    -0.12700
C976        C  0.25139078  0.26005916  0.51225097     0.18200
C977        C  0.22831076  0.28306093  0.52213520    -0.09700
C978        C  0.21613682  0.26431013  0.54194706    -0.02700
H979        H  0.27988951  0.20053726  0.51481995     0.04700
C980        C  0.26317537  0.27773261  0.49039480     0.20200
H981        H  0.19821531  0.28280160  0.54908575     0.09900
C982        C  0.25473674  0.25622001  0.46973098    -0.16000
C983        C  0.26475160  0.27275388  0.44850943     0.02900
C984        C  0.28373822  0.31150092  0.44787151    -0.11400
C985        C  0.29163709  0.33357341  0.46867774    -0.01400
C986        C  0.28141016  0.31714115  0.48982047    -0.06600
H987        H  0.24040167  0.22618298  0.47016059     0.05900
H988        H  0.30629111  0.36318508  0.46852907     0.09300
Br989      Br  0.21161941  0.33869255  0.50841245    -0.06300
Br990      Br  0.26463935  0.14058771  0.55443092    -0.03200
Br991      Br  0.25326212  0.23838067  0.42144996    -0.00400
Br992      Br  0.29330980  0.34875344  0.51751011    -0.04700
C993        C  0.17573733  0.87459518  0.30608469    -0.12100
C994        C  0.16922388  0.83284137  0.29365648     0.03300
C995        C  0.16815864  0.83412697  0.26951545    -0.12700
C996        C  0.17338611  0.87663704  0.25740258     0.18200
C997        C  0.17891415  0.91877057  0.26987428    -0.09700
C998        C  0.18008989  0.91744770  0.29401948    -0.02700
H999        H  0.16313224  0.80182867  0.26012524     0.04700
C1000       C  0.17208930  0.87636902  0.23183574     0.20200
H1001       H  0.18464632  0.94994747  0.30341266     0.09900
C1002       C  0.14622066  0.86861717  0.22089587    -0.16000
C1003       C  0.14410758  0.86752090  0.19678096     0.02900
C1004       C  0.16831011  0.87452297  0.18307092    -0.11400
C1005       C  0.19430768  0.88112188  0.19416926    -0.01400
C1006       C  0.19635745  0.88188507  0.21826432    -0.06600
H1007       H  0.12755292  0.86316103  0.23122032     0.05900
H1008       H  0.21319703  0.88606076  0.18406429     0.09300
Br1009     Br  0.18399563  0.97917678  0.25476874    -0.06300
Br1010     Br  0.15960564  0.77415888  0.30889897    -0.03200
Br1011     Br  0.10787937  0.85331913  0.18391651    -0.00400
Br1012     Br  0.23290321  0.88880699  0.23182730    -0.04700
C1013       C  0.28766122  0.70676588  0.54231948    -0.12100
C1014       C  0.30219371  0.70212933  0.52109497     0.03300
C1015       C  0.29155111  0.72341368  0.50117896    -0.12700
C1016       C  0.26604967  0.74802468  0.50142452     0.18200
C1017       C  0.25024422  0.74911251  0.52197486    -0.09700
C1018       C  0.26132949  0.72936116  0.54228079    -0.02700
H1019       H  0.30324211  0.72043088  0.48521876     0.04700
C1020       C  0.25556463  0.76826988  0.47942357     0.20200
H1021       H  0.24944660  0.73231582  0.55812772     0.09900
C1022       C  0.25201552  0.73734073  0.46068653    -0.16000
C1023       C  0.24152333  0.75401335  0.43974309     0.02900
C1024       C  0.23363676  0.80204630  0.43732968    -0.11400
C1025       C  0.23872465  0.83388342  0.45549803    -0.01400
C1026       C  0.25024835  0.81746260  0.47636430    -0.06600
H1027       H  0.25706158  0.69982542  0.46246468     0.05900
H1028       H  0.23287137  0.87104657  0.45374659     0.09300
Br1029     Br  0.21291800  0.77467559  0.52294162    -0.06300
Br1030     Br  0.33616114  0.66603436  0.51725766    -0.03200
Br1031     Br  0.23827266  0.70971962  0.41485247    -0.00400
Br1032     Br  0.25906758  0.86342633  0.49979287    -0.04700
C1033       C  0.13751561  0.07452504  0.54735977    -0.12100
C1034       C  0.11536100  0.04144417  0.54496748     0.03300
C1035       C  0.11373790  0.01285490  0.52517307    -0.12700
C1036       C  0.13407954  0.01654940  0.50778539     0.18200
C1037       C  0.15607443  0.04968015  0.51014989    -0.09700
C1038       C  0.15750945  0.07857421  0.52969821    -0.02700
H1039       H  0.09667310  0.98755598  0.52336638     0.04700
C1040       C  0.13268779  0.98532297  0.48734128     0.20200
H1041       H  0.17485748  0.10337334  0.53143000     0.09900
C1042       C  0.12200904  0.00347230  0.46658117    -0.16000
C1043       C  0.12384364  0.97726598  0.44608672     0.02900
C1044       C  0.13722446  0.93207573  0.44612725    -0.11400
C1045       C  0.14648992  0.91320552  0.46739473    -0.01400
C1046       C  0.14424063  0.93929121  0.48781844    -0.06600
H1047       H  0.11275335  0.03877130  0.46624706     0.05900
H1048       H  0.15644202  0.87850486  0.46815868     0.09300
Br1049     Br  0.18527155  0.05521660  0.48751049    -0.06300
Br1050     Br  0.08622821  0.03553699  0.56761944    -0.03200
Br1051     Br  0.10735946  0.00586857  0.41912476    -0.00400
Br1052     Br  0.15861135  0.91173969  0.51578507    -0.04700
C1053       C  0.26796830  0.48384388  0.37420183    -0.12100
C1054       C  0.23855292  0.47764964  0.37200960     0.03300
C1055       C  0.22093338  0.51763917  0.36986443    -0.12700
C1056       C  0.23197188  0.56409546  0.36969771     0.18200
C1057       C  0.26118274  0.57022531  0.37236910    -0.09700
C1058       C  0.27875938  0.53052054  0.37435490    -0.02700
H1059       H  0.19850858  0.51245197  0.36805418     0.04700
C1060       C  0.21294597  0.60604214  0.36786664     0.20200
H1061       H  0.30111546  0.53633301  0.37632054     0.09900
C1062       C  0.19479309  0.61661075  0.38619834    -0.16000
C1063       C  0.18124509  0.66099220  0.38747366     0.02900
C1064       C  0.18630047  0.69600513  0.37036356    -0.11400
C1065       C  0.20209809  0.68332024  0.35087579    -0.01400
C1066       C  0.21483824  0.63843811  0.34929494    -0.06600
H1067       H  0.19269608  0.59160912  0.40037923     0.05900
H1068       H  0.20580106  0.70937524  0.33737635     0.09300
Br1069     Br  0.27828583  0.63212594  0.37447542    -0.06300
Br1070     Br  0.22104535  0.41597848  0.37053703    -0.03200
Br1071     Br  0.15987464  0.67405936  0.41477601    -0.00400
Br1072     Br  0.23561413  0.62364411  0.32190283    -0.04700
C1073       C  0.31365102  0.20070557  0.37882359    -0.12100
C1074       C  0.31321733  0.16877218  0.39784333     0.03300
C1075       C  0.29880960  0.12516633  0.39611377    -0.12700
C1076       C  0.28506074  0.11192973  0.37567489     0.18200
C1077       C  0.28728829  0.14189213  0.35623081    -0.09700
C1078       C  0.30149425  0.18555182  0.35790242    -0.02700
H1079       H  0.29732738  0.10224158  0.41114839     0.04700
C1080       C  0.26616625  0.06959000  0.37578480     0.20200
H1081       H  0.30161724  0.20903506  0.34302082     0.09900
C1082       C  0.24058819  0.07232161  0.38764076    -0.16000
C1083       C  0.22184715  0.03364578  0.38823078     0.02900
C1084       C  0.22861940  0.99049048  0.37675029    -0.11400
C1085       C  0.25451457  0.98803709  0.36502802    -0.01400
C1086       C  0.27312427  0.02685928  0.36449787    -0.06600
H1087       H  0.23512161  0.10502761  0.39650202     0.05900
H1088       H  0.26042474  0.95569891  0.35607671     0.09300
Br1089     Br  0.26906596  0.12696766  0.32759536    -0.06300
Br1090     Br  0.32920537  0.18369476  0.42742279    -0.03200
Br1091     Br  0.18800177  0.04279032  0.40564110    -0.00400
Br1092     Br  0.30809665  0.01952470  0.34857804    -0.04700
C1093       C  0.82575781  0.11804479  0.68413730    -0.12100
C1094       C  0.85100269  0.11825591  0.69717583     0.03300
C1095       C  0.85001963  0.12042637  0.72135024    -0.12700
C1096       C  0.82437002  0.12256301  0.73306780     0.18200
C1097       C  0.79929260  0.12344926  0.72021386    -0.09700
C1098       C  0.80011763  0.12114107  0.69606641    -0.02700
H1099       H  0.86943526  0.12053404  0.73110561     0.04700
C1100       C  0.82414412  0.12428857  0.75868116     0.20200
H1101       H  0.78050776  0.12162953  0.68659222     0.09900
C1102       C  0.83184180  0.16657546  0.77000548    -0.16000
C1103       C  0.83105256  0.16959757  0.79415684     0.02900
C1104       C  0.82194238  0.13019599  0.80733556    -0.11400
C1105       C  0.81543938  0.08730006  0.79606405    -0.01400
C1106       C  0.81662364  0.08406577  0.77195166    -0.06600
H1107       H  0.83860769  0.19721327  0.76002456     0.05900
H1108       H  0.80918435  0.05633122  0.80604095     0.17300
Br1109     Br  0.76343834  0.12901267  0.73495033    -0.06300
Br1110     Br  0.88768285  0.11842346  0.68341961    -0.03200
Br1111     Br  0.84503045  0.22653587  0.80848951    -0.00400
Br1112     Br  0.80856707  0.02371624  0.75785626    -0.04700
C1113       C  0.07537420  0.16447307  0.62251004    -0.12100
C1114       C  0.06272990  0.14385272  0.64230717     0.03300
C1115       C  0.03345820  0.14462985  0.64471132    -0.12700
C1116       C  0.01638438  0.16551452  0.62776860     0.18200
C1117       C  0.02889155  0.18811324  0.60873050    -0.09700
C1118       C  0.05801606  0.18778217  0.60632600    -0.02700
H1119       H  0.02386294  0.12721555  0.65943200     0.04700
C1120       C  0.98568728  0.15837020  0.62846895     0.20200
H1121       H  0.06692742  0.20396776  0.59100877     0.09900
C1122       C  0.96785215  0.19661554  0.63371322    -0.16000
C1123       C  0.93869157  0.19219951  0.63113857     0.02900
C1124       C  0.92709672  0.14889649  0.62302223    -0.11400
C1125       C  0.94504543  0.10999478  0.61913044    -0.01400
C1126       C  0.97403330  0.11449598  0.62166528    -0.06600
H1127       H  0.97671926  0.23036404  0.63920285     0.05900
H1128       H  0.93667072  0.07642778  0.61290911     0.09300
Br1129     Br  0.00689050  0.21612998  0.58444679    -0.06300
Br1130     Br  0.08358614  0.11317553  0.66655303    -0.03200
Br1131     Br  0.91593956  0.24600032  0.63936918    -0.00400
Br1132     Br  0.99706027  0.06083387  0.61373477    -0.04700
C1133       C  0.78584184  0.19979866  0.54652871    -0.12100
C1134       C  0.78709025  0.17555082  0.52529385     0.03300
C1135       C  0.77664574  0.19730819  0.50533795    -0.12700
C1136       C  0.76519846  0.24333232  0.50616987     0.18200
C1137       C  0.76372028  0.26740318  0.52743449    -0.09700
C1138       C  0.77394761  0.24549912  0.54744247    -0.02700
H1139       H  0.77708388  0.17803345  0.48915719     0.04700
C1140       C  0.75176020  0.26290029  0.48526385     0.20200
H1141       H  0.77360746  0.26493953  0.56358837     0.09900
C1142       C  0.72254357  0.26310396  0.48440078    -0.16000
C1143       C  0.70836306  0.27647094  0.46441335     0.02900
C1144       C  0.72363722  0.28985787  0.44435064    -0.11400
C1145       C  0.75309129  0.29174897  0.44563341    -0.01400
C1146       C  0.76718498  0.27815991  0.46590371    -0.06600
H1147       H  0.71063261  0.25169044  0.49935474     0.05900
H1148       H  0.76521190  0.30219531  0.43065499     0.09300
Br1149     Br  0.74885885  0.33080757  0.52974207    -0.06300
Br1150     Br  0.80193572  0.11209514  0.52288494    -0.03200
Br1151     Br  0.66810869  0.27523385  0.46666719    -0.00400
Br1152     Br  0.80736592  0.28074086  0.46653277    -0.04700
C1153       C  0.81503039  0.29661137  0.61802405    -0.12100
C1154       C  0.80013444  0.31277371  0.63767243     0.03300
C1155       C  0.78588613  0.35659484  0.63698533    -0.12700
C1156       C  0.78641127  0.38542221  0.61717452     0.18200
C1157       C  0.80325685  0.37160289  0.59844818    -0.09700
C1158       C  0.81734776  0.32769676  0.59895936    -0.02700
H1159       H  0.77352958  0.36751311  0.65172482     0.04700
C1160       C  0.76766494  0.42773550  0.61566484     0.20200
H1161       H  0.82863855  0.31659853  0.58368855     0.09900
C1162       C  0.77812847  0.47328251  0.62056052    -0.16000
C1163       C  0.76083188  0.51377324  0.61930109     0.02900
C1164       C  0.73205139  0.50915585  0.61295326    -0.11400
C1165       C  0.72190028  0.46310295  0.60786471    -0.01400
C1166       C  0.73933252  0.42287193  0.60920783    -0.06600
H1167       H  0.79995904  0.47733801  0.62544627     0.05900
H1168       H  0.70015933  0.45807647  0.60296114     0.09300
Br1169     Br  0.80590885  0.41007810  0.57112893    -0.06300
Br1170     Br  0.79787929  0.27677468  0.66588933    -0.03200
Br1171     Br  0.77866748  0.57348210  0.62658142    -0.00400
Br1172     Br  0.72365056  0.36162888  0.60193736    -0.04700
C1173       C  0.68744682  0.80171280  0.61106046    -0.12100
C1174       C  0.68321866  0.83292866  0.59215509     0.03300
C1175       C  0.69692547  0.87736064  0.59153443    -0.12700
C1176       C  0.71462766  0.89162710  0.60963761     0.18200
C1177       C  0.71723977  0.86196360  0.62916215    -0.09700
C1178       C  0.70393517  0.81741577  0.62966251    -0.02700
H1179       H  0.69470544  0.89998504  0.57645723     0.04700
C1180       C  0.73193971  0.93553972  0.60744001     0.20200
H1181       H  0.70774720  0.79374725  0.64414217     0.09900
C1182       C  0.72439018  0.97669146  0.61967974    -0.16000
C1183       C  0.74219713  0.01658169  0.62033469     0.02900
C1184       C  0.76820974  0.01555653  0.60876676    -0.11400
C1185       C  0.77542867  0.97481230  0.59604185    -0.01400
C1186       C  0.75741927  0.93522932  0.59509843    -0.06600
H1187       H  0.70500440  0.97713535  0.62941014     0.05900
H1188       H  0.79530348  0.97359419  0.58700365     0.09300
Br1189     Br  0.74072416  0.87911460  0.65475314    -0.06300
Br1190     Br  0.66161787  0.81488654  0.56559466    -0.03200
Br1191     Br  0.73123385  0.06972626  0.63905582    -0.00400
Br1192     Br  0.76902038  0.88067424  0.57758732    -0.04700
C1193       C  0.81025192  0.85764451  0.18384961    -0.12100
C1194       C  0.79276705  0.82492007  0.19570558     0.03300
C1195       C  0.79375188  0.82257159  0.21985390    -0.12700
C1196       C  0.81175149  0.85245501  0.23242651     0.18200
C1197       C  0.82891233  0.88520796  0.22066505    -0.09700
C1198       C  0.82811592  0.88746418  0.19668523    -0.02700
H1199       H  0.78060689  0.79708017  0.22887998     0.04700
C1200       C  0.81284501  0.84926829  0.25780050     0.20200
H1201       H  0.84143864  0.91326360  0.18805106     0.09900
C1202       C  0.83750172  0.83282887  0.26838790    -0.16000
C1203       C  0.84076812  0.83491425  0.29231828     0.02900
C1204       C  0.81891947  0.85325024  0.30602610    -0.11400
C1205       C  0.79370750  0.86741267  0.29548863    -0.01400
C1206       C  0.79061936  0.86590326  0.27152491    -0.06600
H1207       H  0.85453967  0.81941012  0.25789463     0.05900
H1208       H  0.77666959  0.88115464  0.30588534     0.09300
Br1209     Br  0.85323408  0.92878542  0.23662660    -0.06300
Br1210     Br  0.76820056  0.78092072  0.18025491    -0.03200
Br1211     Br  0.87500237  0.81066599  0.30532189    -0.00400
Br1212     Br  0.75646846  0.88974800  0.25826801    -0.04700
C1213       C  0.92795688  0.82850973  0.36493953    -0.12100
C1214       C  0.94329994  0.86364521  0.35265010     0.03300
C1215       C  0.97268835  0.86199843  0.35229437    -0.12700
C1216       C  0.98738043  0.82543469  0.36360743     0.18200
C1217       C  0.97207684  0.78844619  0.37429732    -0.09700
C1218       C  0.94274000  0.79014458  0.37483514    -0.02700
H1219       H  0.98418631  0.89050663  0.34387698     0.04700
C1220       C  0.01828592  0.82952443  0.36651318     0.20200
H1221       H  0.93157621  0.76244795  0.38413537     0.09900
C1222       C  0.02902925  0.83536670  0.38887157    -0.16000
C1223       C  0.05776639  0.84108153  0.39272655     0.02900
C1224       C  0.07658503  0.84126495  0.37393753    -0.11400
C1225       C  0.06587861  0.83646930  0.35146180    -0.01400
C1226       C  0.03697211  0.83042776  0.34764968    -0.06600
H1227       H  0.01483392  0.83628893  0.40345422     0.05900
H1228       H  0.08006247  0.83682580  0.33687063     0.09300
Br1229     Br  0.99032341  0.73549399  0.38905528    -0.06300
Br1230     Br  0.92576602  0.91500616  0.33603041    -0.03200
Br1231     Br  0.06968879  0.85233123  0.42394958    -0.00400
Br1232     Br  0.02411983  0.82219085  0.31653743    -0.04700
C1233       C  0.87110123  0.92806905  0.43923280    -0.12100
C1234       C  0.87923337  0.90524737  0.46012695     0.03300
C1235       C  0.88087029  0.93141082  0.48066835    -0.12700
C1236       C  0.87427028  0.98008462  0.48129781     0.18200
C1237       C  0.86732650  0.00344471  0.46052095    -0.09700
C1238       C  0.86581447  0.97756909  0.43983149    -0.02700
H1239       H  0.88630162  0.91315340  0.49656432     0.04700
C1240       C  0.87249058  0.00450039  0.50405352     0.20200
H1241       H  0.85960806  0.99618991  0.42424049     0.09900
C1242       C  0.89199226  0.04000794  0.51007892    -0.16000
C1243       C  0.89040615  0.06357204  0.53144810     0.02900
C1244       C  0.86886442  0.05172356  0.54728238    -0.11400
C1245       C  0.84994385  0.01518417  0.54133824    -0.01400
C1246       C  0.85151736  0.99190528  0.52005918    -0.06600
H1247       H  0.90857255  0.04932327  0.49811684     0.05900
H1248       H  0.83310071  0.00561430  0.55300514     0.09300
Br1249     Br  0.85782296  0.06993890  0.45980842    -0.06300
Br1250     Br  0.88655916  0.83805719  0.46297164    -0.03200
Br1251     Br  0.91905643  0.10969782  0.53828405    -0.00400
Br1252     Br  0.82349823  0.94466136  0.51324151    -0.04700
C1253       C  0.79057774  0.77966275  0.44521897    -0.12100
C1254       C  0.76687962  0.74922260  0.44524584     0.03300
C1255       C  0.75687063  0.73101943  0.46611756    -0.12700
C1256       C  0.77020308  0.74216693  0.48695499     0.18200
C1257       C  0.79407089  0.77149117  0.48699484    -0.09700
C1258       C  0.80388243  0.79032207  0.46629137    -0.02700
H1259       H  0.73845388  0.70829235  0.46614768     0.04700
C1260       C  0.75750564  0.72597990  0.50860143     0.20200
H1261       H  0.82225587  0.81307599  0.46671798     0.09900
C1262       C  0.75890294  0.67762160  0.51490079    -0.16000
C1263       C  0.74499303  0.66112480  0.53462870     0.02900
C1264       C  0.72958675  0.69350328  0.54807014    -0.11400
C1265       C  0.72879536  0.74189330  0.54191760    -0.01400
C1266       C  0.74239771  0.75824436  0.52227127    -0.06600
H1267       H  0.77021177  0.65263426  0.50415017     0.05900
H1268       H  0.71689447  0.76695893  0.55217371     0.09300
Br1269     Br  0.81416410  0.78612153  0.51484386    -0.06300
Br1270     Br  0.74786128  0.72891751  0.41771980    -0.03200
Br1271     Br  0.74546851  0.59404375  0.54132368    -0.00400
Br1272     Br  0.73808280  0.82428074  0.51400075    -0.04700
C1273       C  0.68746099  0.17486162  0.37365049    -0.12100
C1274       C  0.68566469  0.14394722  0.39287382     0.03300
C1275       C  0.69893781  0.09938372  0.39235716    -0.12700
C1276       C  0.71409096  0.08492414  0.37290608     0.18200
C1277       C  0.71391815  0.11395808  0.35302961    -0.09700
C1278       C  0.70099004  0.15883081  0.35361420    -0.02700
H1279       H  0.69900440  0.07730954  0.40773224     0.04700
C1280       C  0.73293968  0.04307349  0.37475563     0.20200
H1281       H  0.70280544  0.18233063  0.33881450     0.09900
C1282       C  0.72200712  0.99666054  0.37363524    -0.16000
C1283       C  0.73974950  0.95676658  0.37499513     0.02900
C1284       C  0.76904579  0.96319200  0.37775086    -0.11400
C1285       C  0.77969026  0.00983922  0.37933216    -0.01400
C1286       C  0.76198518  0.04943019  0.37798767    -0.06600
H1287       H  0.69966392  0.99149861  0.37122037     0.05900
H1288       H  0.80201274  0.01563093  0.38158117     0.09300
Br1289     Br  0.73266115  0.09482230  0.32529066    -0.06300
Br1290     Br  0.66887351  0.16318372  0.42141793    -0.03200
Br1291     Br  0.72280718  0.89507829  0.37118306    -0.00400
Br1292     Br  0.77846439  0.11167738  0.38090279    -0.04700
C1293       C  0.81294674  0.68200865  0.37292046    -0.12100
C1294       C  0.80087260  0.66398583  0.35241921     0.03300
C1295       C  0.78551421  0.62122027  0.35291517    -0.12700
C1296       C  0.78184667  0.59576381  0.37360246     0.18200
C1297       C  0.79577726  0.61172606  0.39362520    -0.09700
C1298       C  0.81108541  0.65441793  0.39316319    -0.02700
H1299       H  0.77568801  0.60849769  0.33721648     0.04700
C1300       C  0.76345035  0.55282392  0.37396467     0.20200
H1301       H  0.82012395  0.66748401  0.40911472     0.09900
C1302       C  0.77112154  0.51247959  0.36121676    -0.16000
C1303       C  0.75446907  0.47117417  0.36127684     0.02900
C1304       C  0.72970264  0.46925769  0.37478241    -0.11400
C1305       C  0.72165808  0.51040507  0.38691375    -0.01400
C1306       C  0.73799689  0.55196810  0.38633980    -0.06600
H1307       H  0.79012353  0.51327484  0.35098890     0.05900
H1308       H  0.70238329  0.51049801  0.39679248     0.09300
Br1309     Br  0.79416234  0.57686658  0.42214590    -0.06300
Br1310     Br  0.80470777  0.69625848  0.32331019    -0.03200
Br1311     Br  0.76591241  0.42057966  0.34105802    -0.00400
Br1312     Br  0.72367964  0.60737367  0.40165815    -0.04700
loop_ 
_geom_bond_atom_site_label_1 
_geom_bond_atom_site_label_2 
_geom_bond_distance 
_geom_bond_site_symmetry_2 
_ccdc_geom_bond_type 
O1           C16   1.256       .  A
O1           Al9   1.887       .  S
C2           O12   1.267       .  A
C2            O3   1.269       .  A
C2         C1233   1.499       .  S
O3           Al5   1.941       .  S
O4            C6   1.257       .  A
O4           Al5   1.863       .  S
Al5          O13   1.904       .  S
Al5          O15   1.934       .  S
Al5          O14   1.777       .  S
C6           O19   1.264       .  A
C6         C1253   1.474       .  S
O7           C17   1.258       .  A
O7           Al9   1.902       .  S
O8           C21   1.266       .  A
O8          Al18   1.897       .  S
Al9          O22   1.918       .  S
Al9          O19   1.919       .  S
Al9          O14   1.778       .  S
O10          C17   1.261       .  A
O10         Al18   1.918       .  S
O11          C20   1.263       .  A
O11         Al18   1.926       .  S
O12         Al18   1.909       .  S
O13          C20   1.262       .  A
O14         Al18   1.776       .  S
O15          C16   1.265       .  A
C16        C1293   1.485       .  S
C17        C1284   1.485       .  S
C20        C1213   1.489       .  S
C21          O22   1.267       .  A
C21        C1204   1.470       .  S
O23          C38   1.256       .  A
O23         Al31   1.892       .  S
C24          O34   1.262       .  A
C24          O25   1.266       .  A
C24        C1244   1.492       .  S
O25         Al27   1.941       .  S
O26          C28   1.258       .  A
O26         Al27   1.871       .  S
Al27         O35   1.900       .  S
Al27         O37   1.937       .  S
Al27         O36   1.784       .  S
C28          O41   1.269       .  A
C28        C1133   1.466       .  S
O29          C39   1.258       .  A
O29         Al31   1.902       .  S
O30          C43   1.262       .  A
O30         Al40   1.895       .  S
Al31         O44   1.935       .  S
Al31         O41   1.939       .  S
Al31         O36   1.781       .  S
O32          C39   1.261       .  A
O32         Al40   1.917       .  S
O33          C42   1.266       .  A
O33         Al40   1.923       .  S
O34         Al40   1.899       .  S
O35          C42   1.262       .  A
O36         Al40   1.780       .  S
O37          C38   1.265       .  A
C38        C1153   1.495       .  S
C39        C1184   1.481       .  S
C42        C1124   1.482       .  S
C43          O44   1.270       .  A
C43        C1093   1.493       .  S
O45          C60   1.262       .  A
O45         Al53   1.895       .  S
C46          O56   1.260       .  A
C46          O47   1.264       .  A
C46        C1044   1.490       .  S
O47         Al49   1.923       .  S
O48          C50   1.257       .  A
O48         Al49   1.905       .  S
Al49         O57   1.907       .  S
Al49         O59   1.924       .  S
Al49         O58   1.789       .  S
C50          O63   1.261       .  A
C50        C1084   1.499       .  S
O51          C61   1.264       .  A
O51         Al53   1.918       .  S
O52          C65   1.263       .  A
O52         Al62   1.914       .  S
Al53         O66   1.915       .  S
Al53         O63   1.920       .  S
Al53         O58   1.785       .  S
O54          C61   1.260       .  A
O54         Al62   1.901       .  S
O55          C64   1.258       .  A
O55         Al62   1.902       .  S
O56         Al62   1.885       .  S
O57          C64   1.259       .  A
O58         Al62   1.789       .  S
O59          C60   1.266       .  A
C60         C993   1.475       .  S
C61        C1024   1.466       .  S
C64        C1224   1.479       .  S
C65          O66   1.263       .  A
C65        C1064   1.483       .  S
O67          C82   1.261       .  A
O67         Al75   1.895       .  S
C68          O78   1.259       .  A
C68          O69   1.264       .  A
C68        C1033   1.475       .  S
O69         Al71   1.921       .  S
O70          C72   1.258       .  A
O70         Al71   1.899       .  S
Al71         O79   1.898       .  S
Al71         O81   1.916       .  S
Al71         O80   1.792       .  S
C72          O85   1.259       .  A
C72         C944   1.493       .  S
O73          C83   1.266       .  A
O73         Al75   1.925       .  S
O74          C87   1.266       .  A
O74         Al84   1.919       .  S
Al75         O88   1.898       .  S
Al75         O85   1.916       .  S
Al75         O80   1.787       .  S
O76          C83   1.258       .  A
O76         Al84   1.878       .  S
O77          C86   1.258       .  A
O77         Al84   1.898       .  S
O78         Al84   1.886       .  S
O79          C86   1.256       .  A
O80         Al84   1.788       .  S
O81          C82   1.264       .  A
C82         C913   1.471       .  S
C83         C973   1.482       .  S
C86        C1113   1.490       .  S
C87          O88   1.261       .  A
C87         C953   1.479       .  S
O89         C104   1.257       .  A
O89         Al97   1.888       .  S
C90         O100   1.263       .  A
C90          O91   1.266       .  A
C90         C893   1.485       .  S
O91         Al93   1.929       .  S
O92          C94   1.258       .  A
O92         Al93   1.872       .  S
Al93        O101   1.900       .  S
Al93        O103   1.937       .  S
Al93        O102   1.779       .  S
C94         O107   1.267       .  A
C94         C984   1.475       .  S
O95         C105   1.258       .  A
O95         Al97   1.903       .  S
O96         C109   1.259       .  A
O96        Al106   1.877       .  S
Al97        O110   1.927       .  S
Al97        O107   1.932       .  S
Al97        O102   1.779       .  S
O98         C105   1.263       .  A
O98        Al106   1.922       .  S
O99         C108   1.266       .  A
O99        Al106   1.928       .  S
O100       Al106   1.892       .  S
O101        C108   1.261       .  A
O102       Al106   1.780       .  S
O103        C104   1.264       .  A
C104       C1073   1.494       .  S
C105       C1053   1.491       .  S
C108        C873   1.492       .  S
C109        O110   1.269       .  A
C109        C864   1.485       .  S
O111        C126   1.257       .  A
O111       Al119   1.887       .  S
C112        O122   1.265       .  A
C112        O113   1.269       .  A
C112        C904   1.475       .  S
O113       Al115   1.934       .  S
O114        C116   1.254       .  A
O114       Al115   1.860       .  S
Al115       O123   1.915       .  S
Al115       O125   1.925       .  S
Al115       O124   1.783       .  S
C116        O129   1.268       .  A
C116       C1013   1.484       .  S
O117        C127   1.255       .  A
O117       Al119   1.901       .  S
O118        C131   1.267       .  A
O118       Al128   1.893       .  S
Al119       O132   1.941       .  S
Al119       O129   1.938       .  S
Al119       O124   1.781       .  S
O120        C127   1.259       .  A
O120       Al128   1.919       .  S
O121        C130   1.263       .  A
O121       Al128   1.923       .  S
O122       Al128   1.896       .  S
O123        C130   1.262       .  A
O124       Al128   1.781       .  S
O125        C126   1.264       .  A
C126        C933   1.488       .  S
C127        C964   1.483       .  S
C130        C833   1.494       .  S
C131        O132   1.273       .  A
C131        C813   1.473       .  S
O133        C148   1.267       .  A
O133       Al141   1.904       .  S
C134        O144   1.259       .  A
C134        O135   1.264       .  A
C134        C793   1.476       .  S
O135       Al137   1.921       .  S
O136        C138   1.256       .  A
O136       Al137   1.899       .  S
Al137       O145   1.904       .  S
Al137       O147   1.912       .  S
Al137       O146   1.792       .  S
C138        O151   1.255       .  A
C138       C1304   1.490       .  S
O139        C149   1.269       .  A
O139       Al141   1.931       .  S
O140        C153   1.264       .  A
O140       Al150   1.915       .  S
Al141       O154   1.912       .  S
Al141       O151   1.908       .  S
Al141       O146   1.789       .  S
O142        C149   1.258       .  A
O142       Al150   1.894       .  S
O143        C152   1.257       .  A
O143       Al150   1.892       .  S
O144       Al150   1.879       .  S
O145        C152   1.256       .  A
O146       Al150   1.786       .  S
O147        C148   1.267       .  A
C148        C773   1.475       .  S
C149       C1144   1.484       .  S
C152        C884   1.492       .  S
C153        O154   1.262       .  A
C153       C1273   1.477       .  S
O155        C170   1.262       .  A
O155       Al163   1.885       .  S
C156        O166   1.257       .  A
C156        O157   1.264       .  A
C156        C804   1.482       .  S
O157       Al159   1.924       .  S
O158        C160   1.259       .  A
O158       Al159   1.920       .  S
Al159       O167   1.913       .  S
Al159       O169   1.932       .  S
Al159       O168   1.793       .  S
C160        O173   1.253       .  A
C160       C1164   1.503       .  S
O161        C171   1.263       .  A
O161       Al163   1.903       .  S
O162        C175   1.262       .  A
O162       Al172   1.917       .  S
Al163       O176   1.904       .  S
Al163       O173   1.904       .  S
Al163       O168   1.789       .  S
O164        C171   1.262       .  A
O164       Al172   1.892       .  S
O165        C174   1.259       .  A
O165       Al172   1.899       .  S
O166       Al172   1.878       .  S
O167        C174   1.260       .  A
O168       Al172   1.793       .  S
O169        C170   1.272       .  A
C170        C753   1.492       .  S
C171       C1264   1.460       .  S
C174        C844   1.499       .  S
C175        O176   1.258       .  A
C175       C1173   1.482       .  S
O177        C192   1.271       .  A
O177       Al185   1.936       .  S
C178        O188   1.270       .  A
C178        O179   1.263       .  A
C178        C673   1.474       .  S
O179       Al181   1.888       .  S
O180        C182   1.261       .  A
O180       Al181   1.923       .  S
Al181       O189   1.928       .  S
Al181       O191   1.877       .  S
Al181       O190   1.778       .  S
C182        O195   1.255       .  A
C182        C713   1.490       .  S
O183        C193   1.268       .  A
O183       Al185   1.928       .  S
O184        C197   1.265       .  A
O184       Al194   1.937       .  S
Al185       O198   1.888       .  S
Al185       O195   1.898       .  S
Al185       O190   1.777       .  S
O186        C193   1.254       .  A
O186       Al194   1.863       .  S
O187        C196   1.262       .  A
O187       Al194   1.912       .  S
O188       Al194   1.944       .  S
O189        C196   1.265       .  A
O190       Al194   1.780       .  S
O191        C192   1.265       .  A
C192       C1193   1.479       .  S
C193        C693   1.481       .  S
C196        C653   1.487       .  S
C197        O198   1.257       .  A
C197        C733   1.489       .  S
O199        C214   1.265       .  A
O199       Al207   1.905       .  S
C200        O210   1.262       .  A
C200        O201   1.262       .  A
C200        C684   1.490       .  S
O201       Al203   1.918       .  S
O202        C204   1.258       .  A
O202       Al203   1.913       .  S
Al203       O211   1.908       .  S
Al203       O213   1.928       .  S
Al203       O212   1.786       .  S
C204        O217   1.258       .  A
C204        C644   1.481       .  S
O205        C215   1.267       .  A
O205       Al207   1.926       .  S
O206        C219   1.265       .  A
O206       Al216   1.922       .  S
Al207       O220   1.903       .  S
Al207       O217   1.912       .  S
Al207       O212   1.781       .  S
O208        C215   1.260       .  A
O208       Al216   1.894       .  S
O209        C218   1.258       .  A
O209       Al216   1.896       .  S
O210       Al216   1.894       .  S
O211        C218   1.260       .  A
O212       Al216   1.787       .  S
O213        C214   1.267       .  A
C214       C1104   1.478       .  S
C215        C593   1.469       .  S
C218        C573   1.475       .  S
C219        O220   1.260       .  A
C219        C624   1.483       .  S
O221        C236   1.259       .  A
O221       Al229   1.893       .  S
C222        O232   1.261       .  A
C222        O223   1.264       .  A
C222        C524   1.481       .  S
O223       Al225   1.925       .  S
O224        C226   1.259       .  A
O224       Al225   1.883       .  S
Al225       O233   1.903       .  S
Al225       O235   1.927       .  S
Al225       O234   1.783       .  S
C226        O239   1.264       .  A
C226        C493   1.474       .  S
O227        C237   1.257       .  A
O227       Al229   1.895       .  S
O228        C241   1.262       .  A
O228       Al238   1.896       .  S
Al229       O242   1.926       .  S
Al229       O239   1.921       .  S
Al229       O234   1.781       .  S
O230        C237   1.265       .  A
O230       Al238   1.929       .  S
O231        C240   1.267       .  A
O231       Al238   1.932       .  S
O232       Al238   1.895       .  S
O233        C240   1.262       .  A
O234       Al238   1.779       .  S
O235        C236   1.265       .  A
C236        C533   1.486       .  S
C237        C564   1.492       .  S
C240        C664   1.492       .  S
C241        O242   1.267       .  A
C241       C1004   1.486       .  S
O243        C258   1.260       .  A
O243       Al251   1.907       .  S
C244        O254   1.263       .  A
C244        O245   1.264       .  A
C244        C513   1.489       .  S
O245       Al247   1.930       .  S
O246        C248   1.257       .  A
O246       Al247   1.870       .  S
Al247       O255   1.901       .  S
Al247       O257   1.918       .  S
Al247       O256   1.782       .  S
C248        O261   1.268       .  A
C248        C473   1.471       .  S
O249        C259   1.261       .  A
O249       Al251   1.916       .  S
O250        C263   1.264       .  A
O250       Al260   1.887       .  S
Al251       O264   1.928       .  S
Al251       O261   1.928       .  S
Al251       O256   1.782       .  S
O252        C259   1.260       .  A
O252       Al260   1.915       .  S
O253        C262   1.264       .  A
O253       Al260   1.925       .  S
O254       Al260   1.896       .  S
O255        C262   1.263       .  A
O256       Al260   1.777       .  S
O257        C258   1.261       .  A
C258        C464   1.487       .  S
C259        C444   1.491       .  S
C262        C584   1.489       .  S
C263        O264   1.267       .  A
C263        C924   1.489       .  S
O265        C280   1.265       .  A
O265       Al273   1.923       .  S
C266        O276   1.268       .  A
C266        O267   1.261       .  A
C266        C413   1.486       .  S
O267       Al269   1.895       .  S
O268        C270   1.264       .  A
O268       Al269   1.923       .  S
Al269       O277   1.923       .  S
Al269       O279   1.887       .  S
Al269       O278   1.776       .  S
C270        O283   1.257       .  A
C270        C544   1.494       .  S
O271        C281   1.263       .  A
O271       Al273   1.912       .  S
O272        C285   1.263       .  A
O272       Al282   1.929       .  S
Al273       O286   1.899       .  S
Al273       O283   1.896       .  S
Al273       O278   1.778       .  S
O274        C281   1.258       .  A
O274       Al282   1.876       .  S
O275        C284   1.261       .  A
O275       Al282   1.900       .  S
O276       Al282   1.936       .  S
O277        C284   1.266       .  A
O278       Al282   1.778       .  S
O279        C280   1.261       .  A
C280        C853   1.461       .  S
C281        C484   1.467       .  S
C284        C393   1.485       .  S
C285        O286   1.262       .  A
C285        C553   1.496       .  S
O287        C302   1.269       .  A
O287       Al295   1.932       .  S
C288        O298   1.263       .  A
C288        O289   1.262       .  A
C288        C424   1.492       .  S
O289       Al291   1.901       .  S
O290        C292   1.262       .  A
O290       Al291   1.917       .  S
Al291       O299   1.939       .  S
Al291       O301   1.891       .  S
Al291       O300   1.782       .  S
C292        O305   1.260       .  A
C292        C453   1.493       .  S
O293        C303   1.267       .  A
O293       Al295   1.933       .  S
O294        C307   1.262       .  A
O294       Al304   1.915       .  S
Al295       O308   1.913       .  S
Al295       O305   1.911       .  S
Al295       O300   1.786       .  S
O296        C303   1.258       .  A
O296       Al304   1.867       .  S
O297        C306   1.260       .  A
O297       Al304   1.897       .  S
O298       Al304   1.927       .  S
O299        C306   1.268       .  A
O300       Al304   1.781       .  S
O301        C302   1.263       .  A
C302        C824   1.483       .  S
C303        C504   1.469       .  S
C306        C373   1.490       .  S
C307        O308   1.262       .  A
C307        C433   1.492       .  S
O309        C324   1.261       .  A
O309       Al317   1.900       .  S
C310        O320   1.264       .  A
C310        O311   1.265       .  A
C310        C353   1.491       .  S
O311       Al313   1.929       .  S
O312        C314   1.253       .  A
O312       Al313   1.870       .  S
Al313       O321   1.886       .  S
Al313       O323   1.924       .  S
Al313       O322   1.775       .  S
C314        O327   1.268       .  A
C314        C604   1.486       .  S
O315        C325   1.264       .  A
O315       Al317   1.917       .  S
O316        C329   1.266       .  A
O316       Al326   1.905       .  S
Al317       O330   1.921       .  S
Al317       O327   1.945       .  S
Al317       O322   1.779       .  S
O318        C325   1.265       .  A
O318       Al326   1.923       .  S
O319        C328   1.267       .  A
O319       Al326   1.937       .  S
O320       Al326   1.907       .  S
O321        C328   1.257       .  A
O322       Al326   1.778       .  S
O323        C324   1.264       .  A
C324        C724   1.478       .  S
C325        C744   1.497       .  S
C328        C404   1.481       .  S
C329        O330   1.266       .  A
C329        C784   1.486       .  S
O331        C346   1.259       .  A
O331       Al339   1.891       .  S
C332        O342   1.266       .  A
C332        O333   1.265       .  A
C332        C364   1.492       .  S
O333       Al335   1.928       .  S
O334        C336   1.258       .  A
O334       Al335   1.881       .  S
Al335       O343   1.922       .  S
Al335       O345   1.941       .  S
Al335       O344   1.787       .  S
C336        O349   1.264       .  A
C336        C704   1.457       .  S
O337        C347   1.260       .  A
O337       Al339   1.904       .  S
O338        C351   1.265       .  A
O338       Al348   1.905       .  S
Al339       O352   1.917       .  S
Al339       O349   1.920       .  S
Al339       O344   1.782       .  S
O340        C347   1.260       .  A
O340       Al348   1.916       .  S
O341        C350   1.263       .  A
O341       Al348   1.913       .  S
O342       Al348   1.912       .  S
O343        C350   1.267       .  A
O344       Al348   1.776       .  S
O345        C346   1.265       .  A
C346        C633   1.493       .  S
C347        C613   1.484       .  S
C350        C384   1.490       .  S
C351        O352   1.266       .  A
C351        C764   1.484       .  S
C353        C354   1.417       .  A
C353        C358   1.408       .  A
C354        C355   1.404       .  A
C354       Br370   1.920       .  S
C355        C356   1.402       .  A
C355        H359   1.083   1_554  S
C356        C360   1.485   1_554  S
C356        C357   1.407       .  A
C357        C358   1.402       .  A
C357       Br369   1.919       .  S
C358        H361   1.084       .  S
C360        C362   1.402       .  A
C360        C366   1.407       .  A
C362        C363   1.405       .  A
C362        H367   1.083       .  S
C363        C364   1.419       .  A
C363       Br371   1.922       .  S
C364        C365   1.407       .  A
C365        C366   1.401       .  A
C365        H368   1.082       .  S
C366       Br372   1.918       .  S
C373        C374   1.418       .  A
C373        C378   1.406       .  A
C374        C375   1.402       .  A
C374       Br390   1.921       .  S
C375        C376   1.402       .  A
C375        H379   1.083       .  S
C376        C380   1.491       .  S
C376        C377   1.411       .  A
C377        C378   1.402       .  A
C377       Br389   1.919       .  S
C378        H381   1.084       .  S
C380        C382   1.400       .  A
C380        C386   1.412       .  A
C382        C383   1.396       .  A
C382        H387   1.084       .  S
C383        C384   1.419       .  A
C383       Br391   1.924       .  S
C384        C385   1.407       .  A
C385        C386   1.408       .  A
C385        H388   1.083       .  S
C386       Br392   1.918       .  S
C393        C394   1.416       .  A
C393        C398   1.406       .  A
C394        C395   1.404       .  A
C394       Br410   1.921       .  S
C395        C396   1.404       .  A
C395        H399   1.084       .  S
C396        C400   1.481       .  S
C396        C397   1.408       .  A
C397        C398   1.395       .  A
C397       Br409   1.922       .  S
C398        H401   1.084       .  S
C400        C402   1.400       .  A
C400        C406   1.409       .  A
C402        C403   1.398       .  A
C402        H407   1.084       .  S
C403        C404   1.416       .  A
C403       Br411   1.921       .  S
C404        C405   1.405       .  A
C405        C406   1.401       .  A
C405        H408   1.084       .  S
C406       Br412   1.918       .  S
C413        C414   1.417       .  A
C413        C418   1.407       .  A
C414        C415   1.400       .  A
C414       Br430   1.921       .  S
C415        C416   1.400       .  A
C415        H419   1.084       .  S
C416        C420   1.480   1_554  S
C416        C417   1.406       .  A
C417        C418   1.402       .  A
C417       Br429   1.917   1_554  S
C418        H421   1.083       .  S
C420        C422   1.400       .  A
C420        C426   1.405       .  A
C422        C423   1.403       .  A
C422        H427   1.084       .  S
C423        C424   1.420       .  A
C423       Br431   1.922       .  S
C424        C425   1.409       .  A
C425        C426   1.399       .  A
C425        H428   1.083       .  S
C426       Br432   1.917       .  S
C433        C434   1.413       .  A
C433        C438   1.410       .  A
C434        C435   1.407       .  A
C434       Br450   1.919       .  S
C435        C436   1.405       .  A
C435        H439   1.083       .  S
C436        C440   1.486       .  S
C436        C437   1.406       .  A
C437        C438   1.400       .  A
C437       Br449   1.919       .  S
C438        H441   1.084       .  S
C440        C442   1.400       .  A
C440        C446   1.408   1_565  A
C442        C443   1.399       .  A
C442        H447   1.084       .  S
C443        C444   1.415   1_565  A
C443       Br451   1.917       .  S
C444        C445   1.409       .  A
C445        C446   1.408       .  A
C445        H448   1.083       .  S
C446       Br452   1.916       .  S
C453        C454   1.418       .  A
C453        C458   1.408       .  A
C454        C455   1.407       .  A
C454       Br470   1.920       .  S
C455        C456   1.403       .  A
C455        H459   1.083       .  S
C456        C460   1.485       .  S
C456        C457   1.406       .  A
C457        C458   1.399       .  A
C457       Br469   1.919       .  S
C458        H461   1.083       .  S
C460        C462   1.404       .  A
C460        C466   1.407       .  A
C462        C463   1.405       .  A
C462        H467   1.083       .  S
C463        C464   1.412       .  A
C463       Br471   1.917       .  S
C464        C465   1.409       .  A
C465        C466   1.401       .  A
C465        H468   1.084       .  S
C466       Br472   1.919       .  S
C473        C474   1.417       .  A
C473        C478   1.404       .  A
C474        C475   1.391       .  A
C474       Br490   1.923       .  S
C475        C476   1.395       .  A
C475        H479   1.084       .  S
C476        C480   1.465   1_556  S
C476        C477   1.406       .  A
C477        C478   1.397       .  A
C477       Br489   1.919       .  S
C478        H481   1.083       .  S
C480        C482   1.398       .  A
C480        C486   1.404       .  A
C482        C483   1.393       .  A
C482        H487   1.084       .  S
C483        C484   1.412       .  A
C483       Br491   1.920       .  S
C484        C485   1.405       .  A
C485        C486   1.394       .  A
C485        H488   1.084       .  S
C486       Br492   1.918   1_554  S
C493        C494   1.413       .  A
C493        C498   1.407       .  A
C494        C495   1.396       .  A
C494       Br510   1.921       .  S
C495        C496   1.400       .  A
C495        H499   1.084       .  S
C496        C500   1.469   1_554  S
C496        C497   1.403       .  A
C497        C498   1.397       .  A
C497       Br509   1.917   1_554  S
C498        H501   1.084       .  S
C500        C502   1.404       .  A
C500        C506   1.402       .  A
C502        C503   1.400       .  A
C502        H507   1.084       .  S
C503        C504   1.407       .  A
C503       Br511   1.918       .  S
C504        C505   1.406       .  A
C505        C506   1.391       .  A
C505        H508   1.084       .  S
C506       Br512   1.919       .  S
C513        C514   1.419       .  A
C513        C518   1.406       .  A
C514        C515   1.405       .  A
C514       Br530   1.921       .  S
C515        C516   1.401       .  A
C515        H519   1.083       .  S
C516        C520   1.477   1_556  S
C516        C517   1.403       .  A
C517        C518   1.394       .  A
C517       Br529   1.917   1_545  S
C518        H521   1.078       .  S
C520        C522   1.401   1_545  A
C520        C526   1.407       .  A
C522        C523   1.402       .  A
C522        H527   1.083       .  S
C523        C524   1.415       .  A
C523       Br531   1.921       .  S
C524        C525   1.406       .  A
C525        C526   1.398   1_565  A
C525        H528   1.084   1_565  S
C526       Br532   1.920       .  S
C533        C534   1.413       .  A
C533        C538   1.408       .  A
C534        C535   1.401       .  A
C534       Br550   1.921       .  S
C535        C536   1.404       .  A
C535        H539   1.083       .  S
C536        C540   1.487       .  S
C536        C537   1.409       .  A
C537        C538   1.400       .  A
C537       Br549   1.920       .  S
C538        H541   1.083       .  S
C540        C542   1.403       .  A
C540        C546   1.408       .  A
C542        C543   1.404       .  A
C542        H547   1.083       .  S
C543        C544   1.420       .  A
C543       Br551   1.922       .  S
C544        C545   1.408       .  A
C545        C546   1.397       .  A
C545        H548   1.083       .  S
C546       Br552   1.921       .  S
C553        C554   1.422       .  A
C553        C558   1.409       .  A
C554        C555   1.404       .  A
C554       Br570   1.922       .  S
C555        C556   1.401       .  A
C555        H559   1.084       .  S
C556        C560   1.487       .  S
C556        C557   1.408       .  A
C557        C558   1.401       .  A
C557       Br569   1.919       .  S
C558        H561   1.083       .  S
C560        C562   1.402       .  A
C560        C566   1.409       .  A
C562        C563   1.404   1_545  A
C562        H567   1.083       .  S
C563        C564   1.419       .  A
C563       Br571   1.921       .  S
C564        C565   1.406   1_565  A
C565        C566   1.400       .  A
C565        H568   1.083       .  S
C566       Br572   1.919       .  S
C573        C574   1.411       .  A
C573        C578   1.405       .  A
C574        C575   1.394       .  A
C574       Br590   1.922       .  S
C575        C576   1.401       .  A
C575        H579   1.084       .  S
C576        C580   1.480   1_655  S
C576        C577   1.410       .  A
C577        C578   1.405       .  A
C577       Br589   1.917       .  S
C578        H581   1.083       .  S
C580        C582   1.400       .  A
C580        C586   1.407       .  A
C582        C583   1.400       .  A
C582        H587   1.084       .  S
C583        C584   1.419       .  A
C583       Br591   1.922       .  S
C584        C585   1.408       .  A
C585        C586   1.399       .  A
C585        H588   1.083       .  S
C586       Br592   1.919       .  S
C593        C594   1.409       .  A
C593        C598   1.404       .  A
C594        C595   1.392       .  A
C594       Br610   1.916       .  S
C595        C596   1.397       .  A
C595        H599   1.084       .  S
C596        C600   1.472   1_556  S
C596        C597   1.408       .  A
C597        C598   1.404       .  A
C597       Br609   1.917       .  S
C598        H601   1.084       .  S
C600        C602   1.394       .  A
C600        C606   1.406       .  A
C602        C603   1.393       .  A
C602        H607   1.084   1_554  S
C603        C604   1.423       .  A
C603       Br611   1.926       .  S
C604        C605   1.408       .  A
C605        C606   1.402       .  A
C605        H608   1.083       .  S
C606       Br612   1.917       .  S
C613        C614   1.413       .  A
C613        C618   1.408       .  A
C614        C615   1.399       .  A
C614       Br630   1.919       .  S
C615        C616   1.402       .  A
C615        H619   1.084       .  S
C616        C620   1.483       .  S
C616        C617   1.407       .  A
C617        C618   1.404       .  A
C617       Br629   1.917       .  S
C618        H621   1.083       .  S
C620        C622   1.400       .  A
C620        C626   1.409       .  A
C622        C623   1.399       .  A
C622        H627   1.084       .  S
C623        C624   1.414       .  A
C623       Br631   1.919       .  S
C624        C625   1.405       .  A
C625        C626   1.404       .  A
C625        H628   1.084       .  S
C626       Br632   1.918       .  S
C633        C634   1.415       .  A
C633        C638   1.409       .  A
C634        C635   1.409       .  A
C634       Br650   1.918       .  S
C635        C636   1.405       .  A
C635        H639   1.083       .  S
C636        C640   1.486       .  S
C636        C637   1.405       .  A
C637        C638   1.397       .  A
C637       Br649   1.920       .  S
C638        H641   1.083       .  S
C640        C642   1.406       .  A
C640        C646   1.408       .  A
C642        C643   1.406       .  A
C642        H647   1.083       .  S
C643        C644   1.411   1_565  A
C643       Br651   1.919   1_565  S
C644        C645   1.404       .  A
C645        C646   1.400   1_545  A
C645        H648   1.084       .  S
C646       Br652   1.918       .  S
C653        C654   1.412       .  A
C653        C658   1.406       .  A
C654        C655   1.407       .  A
C654       Br670   1.918       .  S
C655        C656   1.406       .  A
C655        H659   1.083       .  S
C656        C660   1.489   1_655  S
C656        C657   1.409       .  A
C657        C658   1.398       .  A
C657       Br669   1.921       .  S
C658        H661   1.083       .  S
C660        C662   1.403       .  A
C660        C666   1.409       .  A
C662        C663   1.404       .  A
C662        H667   1.083       .  S
C663        C664   1.418       .  A
C663       Br671   1.921       .  S
C664        C665   1.407       .  A
C665        C666   1.401       .  A
C665        H668   1.083       .  S
C666       Br672   1.919       .  S
C673        C674   1.410       .  A
C673        C678   1.403       .  A
C674        C675   1.402       .  A
C674       Br690   1.918       .  S
C675        C676   1.404   1_565  A
C675        H679   1.083       .  S
C676        C680   1.479   1_554  S
C676        C677   1.408       .  A
C677        C678   1.397   1_545  A
C677       Br689   1.920       .  S
C678        H681   1.084       .  S
C680        C682   1.399       .  A
C680        C686   1.406       .  A
C682        C683   1.400       .  A
C682        H687   1.084   1_545  S
C683        C684   1.420       .  A
C683       Br691   1.922   1_545  S
C684        C685   1.409       .  A
C685        C686   1.399       .  A
C685        H688   1.083       .  S
C686       Br692   1.919   1_556  S
C693        C694   1.420       .  A
C693        C698   1.406       .  A
C694        C695   1.394       .  A
C694       Br710   1.926       .  S
C695        C696   1.399       .  A
C695        H699   1.084   1_554  S
C696        C700   1.475   1_554  S
C696        C697   1.407       .  A
C697        C698   1.397       .  A
C697       Br709   1.919       .  S
C698        H701   1.083       .  S
C700        C702   1.406       .  A
C700        C706   1.409       .  A
C702        C703   1.397       .  A
C702        H707   1.084       .  S
C703        C704   1.403       .  A
C703       Br711   1.919       .  S
C704        C705   1.400       .  A
C705        C706   1.394       .  A
C705        H708   1.085       .  S
C706       Br712   1.921       .  S
C713        C714   1.419       .  A
C713        C718   1.407   1_565  A
C714        C715   1.404   1_565  A
C714       Br730   1.921       .  S
C715        C716   1.401       .  A
C715        H719   1.083       .  S
C716        C720   1.480       .  S
C716        C717   1.405       .  A
C717        C718   1.398       .  A
C717       Br729   1.920       .  S
C718        H721   1.083       .  S
C720        C722   1.404       .  A
C720        C726   1.406       .  A
C722        C723   1.403       .  A
C722        H727   1.083       .  S
C723        C724   1.410       .  A
C723       Br731   1.920       .  S
C724        C725   1.405       .  A
C725        C726   1.398       .  A
C725        H728   1.084       .  S
C726       Br732   1.919       .  S
C733        C734   1.416       .  A
C733        C738   1.408       .  A
C734        C735   1.404       .  A
C734       Br750   1.921       .  S
C735        C736   1.402       .  A
C735        H739   1.083       .  S
C736        C740   1.489       .  S
C736        C737   1.409       .  A
C737        C738   1.404       .  A
C737       Br749   1.918       .  S
C738        H741   1.083       .  S
C740        C742   1.403       .  A
C740        C746   1.407       .  A
C742        C743   1.407       .  A
C742        H747   1.083       .  S
C743        C744   1.418       .  A
C743       Br751   1.919       .  S
C744        C745   1.410       .  A
C745        C746   1.400       .  A
C745        H748   1.083       .  S
C746       Br752   1.920       .  S
C753        C754   1.421       .  A
C753        C758   1.409       .  A
C754        C755   1.400       .  A
C754       Br770   1.924       .  S
C755        C756   1.401       .  A
C755        H759   1.084       .  S
C756        C760   1.484       .  S
C756        C757   1.407       .  A
C757        C758   1.399       .  A
C757       Br769   1.919       .  S
C758        H761   1.083       .  S
C760        C762   1.404       .  A
C760        C766   1.408       .  A
C762        C763   1.401       .  A
C762        H767   1.084       .  S
C763        C764   1.413       .  A
C763       Br771   1.921       .  S
C764        C765   1.407       .  A
C765        C766   1.398       .  A
C765        H768   1.084       .  S
C766       Br772   1.920       .  S
C773        C774   1.412       .  A
C773        C778   1.404       .  A
C774        C775   1.398       .  A
C774       Br790   1.921       .  S
C775        C776   1.401       .  A
C775        H779   1.084       .  S
C776        C780   1.478       .  S
C776        C777   1.408       .  A
C777        C778   1.401       .  A
C777       Br789   1.918       .  S
C778        H781   1.084       .  S
C780        C782   1.399       .  A
C780        C786   1.407       .  A
C782        C783   1.399       .  A
C782        H787   1.084       .  S
C783        C784   1.418       .  A
C783       Br791   1.923       .  S
C784        C785   1.407       .  A
C785        C786   1.400       .  A
C785        H788   1.083       .  S
C786       Br792   1.919       .  S
C793        C794   1.411       .  A
C793        C798   1.404       .  A
C794        C795   1.404       .  A
C794       Br810   1.920       .  S
C795        C796   1.404       .  A
C795        H799   1.083       .  S
C796        C800   1.475       .  S
C796        C797   1.405       .  A
C797        C798   1.393       .  A
C797       Br809   1.920       .  S
C798        H801   1.083       .  S
C800        C802   1.403       .  A
C800        C806   1.405       .  A
C802        C803   1.403       .  A
C802        H807   1.083       .  S
C803        C804   1.413       .  A
C803       Br811   1.919       .  S
C804        C805   1.407       .  A
C805        C806   1.396       .  A
C805        H808   1.084       .  S
C806       Br812   1.920       .  S
C813        C814   1.410       .  A
C813        C818   1.402       .  A
C814        C815   1.402       .  A
C814       Br830   1.919       .  S
C815        C816   1.403       .  A
C815        H819   1.083       .  S
C816        C820   1.478       .  S
C816        C817   1.407       .  A
C817        C818   1.398       .  A
C817       Br829   1.918       .  S
C818        H821   1.084       .  S
C820        C822   1.400       .  A
C820        C826   1.406       .  A
C822        C823   1.400       .  A
C822        H827   1.084       .  S
C823        C824   1.416       .  A
C823       Br831   1.921       .  S
C824        C825   1.406       .  A
C825        C826   1.401       .  A
C825        H828   1.084       .  S
C826       Br832   1.917       .  S
C833        C834   1.415       .  A
C833        C838   1.409       .  A
C834        C835   1.408       .  A
C834       Br850   1.919       .  S
C835        C836   1.406       .  A
C835        H839   1.083       .  S
C836        C840   1.489       .  S
C836        C837   1.407       .  A
C837        C838   1.398       .  A
C837       Br849   1.920       .  S
C838        H841   1.083       .  S
C840        C842   1.405       .  A
C840        C846   1.406       .  A
C842        C843   1.407       .  A
C842        H847   1.084       .  S
C843        C844   1.419       .  A
C843       Br851   1.921       .  S
C844        C845   1.411       .  A
C845        C846   1.400       .  A
C845        H848   1.083       .  S
C846       Br852   1.919       .  S
C853        C854   1.405       .  A
C853        C858   1.400       .  A
C854        C855   1.397       .  A
C854       Br870   1.919       .  S
C855        C856   1.403       .  A
C855        H859   1.083       .  S
C856        C860   1.475       .  S
C856        C857   1.410       .  A
C857        C858   1.397       .  A
C857       Br869   1.920       .  S
C858        H861   1.084       .  S
C860        C862   1.399       .  A
C860        C866   1.406       .  A
C862        C863   1.396       .  A
C862        H867   1.084       .  S
C863        C864   1.420       .  A
C863       Br871   1.925       .  S
C864        C865   1.408       .  A
C865        C866   1.397       .  A
C865        H868   1.083       .  S
C866       Br872   1.920       .  S
C873        C874   1.417       .  A
C873        C878   1.409       .  A
C874        C875   1.402       .  A
C874       Br890   1.921       .  S
C875        C876   1.404       .  A
C875        H879   1.084       .  S
C876        C880   1.488       .  S
C876        C877   1.409       .  A
C877        C878   1.399       .  A
C877       Br889   1.920       .  S
C878        H881   1.083       .  S
C880        C882   1.406       .  A
C880        C886   1.408       .  A
C882        C883   1.405       .  A
C882        H887   1.083       .  S
C883        C884   1.417       .  A
C883       Br891   1.921       .  S
C884        C885   1.408       .  A
C885        C886   1.396       .  A
C885        H888   1.083       .  S
C886       Br892   1.921       .  S
C893        C894   1.416       .  A
C893        C898   1.407       .  A
C894        C895   1.399       .  A
C894       Br910   1.922       .  S
C895        C896   1.400       .  A
C895        H899   1.084       .  S
C896        C900   1.478       .  S
C896        C897   1.407       .  A
C897        C898   1.398       .  A
C897       Br909   1.919       .  S
C898        H901   1.083       .  S
C900        C902   1.403       .  A
C900        C906   1.409       .  A
C902        C903   1.402       .  A
C902        H907   1.083       .  S
C903        C904   1.411       .  A
C903       Br911   1.920       .  S
C904        C905   1.403       .  A
C905        C906   1.396       .  A
C905        H908   1.084       .  S
C906       Br912   1.921       .  S
C913        C914   1.409       .  A
C913        C918   1.403       .  A
C914        C915   1.399       .  A
C914       Br930   1.919       .  S
C915        C916   1.402       .  A
C915        H919   1.083       .  S
C916        C920   1.477       .  S
C916        C917   1.408       .  A
C917        C918   1.399       .  A
C917       Br929   1.919       .  S
C918        H921   1.084       .  S
C920        C922   1.400       .  A
C920        C926   1.404       .  A
C922        C923   1.401       .  A
C922        H927   1.084       .  S
C923        C924   1.419       .  A
C923       Br931   1.922       .  S
C924        C925   1.410       .  A
C925        C926   1.396       .  A
C925        H928   1.083       .  S
C926       Br932   1.919       .  S
C933        C934   1.414       .  A
C933        C938   1.408       .  A
C934        C935   1.404       .  A
C934       Br950   1.921       .  S
C935        C936   1.404       .  A
C935        H939   1.083       .  S
C936        C940   1.488       .  S
C936        C937   1.408       .  A
C937        C938   1.402       .  A
C937       Br949   1.919       .  S
C938        H941   1.083       .  S
C940        C942   1.401       .  A
C940        C946   1.410       .  A
C942        C943   1.403   1_565  A
C942        H947   1.083       .  S
C943        C944   1.419       .  A
C943       Br951   1.922       .  S
C944        C945   1.408   1_545  A
C945        C946   1.402       .  A
C945        H948   1.083       .  S
C946       Br952   1.920       .  S
C953        C954   1.413       .  A
C953        C958   1.406       .  A
C954        C955   1.404       .  A
C954       Br970   1.918       .  S
C955        C956   1.403       .  A
C955        H959   1.083       .  S
C956        C960   1.483       .  S
C956        C957   1.407       .  A
C957        C958   1.398       .  A
C957       Br969   1.919       .  S
C958        H961   1.084       .  S
C960        C962   1.401       .  A
C960        C966   1.410       .  A
C962        C963   1.403       .  A
C962        H967   1.083       .  S
C963        C964   1.415       .  A
C963       Br971   1.919       .  S
C964        C965   1.404       .  A
C965        C966   1.400       .  A
C965        H968   1.084       .  S
C966       Br972   1.921       .  S
C973        C974   1.411       .  A
C973        C978   1.410       .  A
C974        C975   1.405       .  A
C974       Br990   1.918       .  S
C975        C976   1.405       .  A
C975        H979   1.083       .  S
C976        C980   1.471       .  S
C976        C977   1.400       .  A
C977        C978   1.389       .  A
C977       Br989   1.921       .  S
C978        H981   1.083       .  S
C980        C982   1.400       .  A
C980        C986   1.405       .  A
C982        C983   1.398       .  A
C982        H987   1.084       .  S
C983        C984   1.413       .  A
C983       Br991   1.921       .  S
C984        C985   1.407       .  A
C985        C986   1.396       .  A
C985        H988   1.084       .  S
C986       Br992   1.919       .  S
C993        C994   1.409       .  A
C993        C998   1.403       .  A
C994        C995   1.400       .  A
C994      Br1010   1.920       .  S
C995        C996   1.403       .  A
C995        H999   1.084       .  S
C996       C1000   1.483       .  S
C996        C997   1.410       .  A
C997        C998   1.401       .  A
C997      Br1009   1.919       .  S
C998       H1001   1.084       .  S
C1000      C1002   1.402       .  A
C1000      C1006   1.408       .  A
C1002      C1003   1.401       .  A
C1002      H1007   1.084       .  S
C1003      C1004   1.415       .  A
C1003     Br1011   1.921       .  S
C1004      C1005   1.407       .  A
C1005      C1006   1.400       .  A
C1005      H1008   1.083       .  S
C1006     Br1012   1.920       .  S
C1013      C1014   1.419       .  A
C1013      C1018   1.407       .  A
C1014      C1015   1.393       .  A
C1014     Br1030   1.924       .  S
C1015      C1016   1.398       .  A
C1015      H1019   1.084       .  S
C1016      C1020   1.481       .  S
C1016      C1017   1.411       .  A
C1017      C1018   1.402       .  A
C1017     Br1029   1.920       .  S
C1018      H1021   1.083       .  S
C1020      C1022   1.401       .  A
C1020      C1026   1.413       .  A
C1022      C1023   1.392       .  A
C1022      H1027   1.083       .  S
C1023      C1024   1.405       .  A
C1023     Br1031   1.911       .  S
C1024      C1025   1.402       .  A
C1025      C1026   1.404       .  A
C1025      H1028   1.083       .  S
C1026     Br1032   1.920       .  S
C1033      C1034   1.411       .  A
C1033      C1038   1.404       .  A
C1034      C1035   1.403       .  A
C1034     Br1050   1.919       .  S
C1035      C1036   1.403       .  A
C1035      H1039   1.083   1_545  S
C1036      C1040   1.476   1_545  S
C1036      C1037   1.406       .  A
C1037      C1038   1.396       .  A
C1037     Br1049   1.920       .  S
C1038      H1041   1.084       .  S
C1040      C1042   1.400   1_565  A
C1040      C1046   1.403       .  A
C1042      C1043   1.401   1_545  A
C1042      H1047   1.084       .  S
C1043      C1044   1.419       .  A
C1043     Br1051   1.922   1_565  S
C1044      C1045   1.410       .  A
C1045      C1046   1.397       .  A
C1045      H1048   1.083       .  S
C1046     Br1052   1.919       .  S
C1053      C1054   1.418       .  A
C1053      C1058   1.405       .  A
C1054      C1055   1.406       .  A
C1054     Br1070   1.920       .  S
C1055      C1056   1.403       .  A
C1055      H1059   1.083       .  S
C1056      C1060   1.489       .  S
C1056      C1057   1.411       .  A
C1057      C1058   1.398       .  A
C1057     Br1069   1.920       .  S
C1058      H1061   1.084       .  S
C1060      C1062   1.404       .  A
C1060      C1066   1.409       .  A
C1062      C1063   1.404       .  A
C1062      H1067   1.083       .  S
C1063      C1064   1.414       .  A
C1063     Br1071   1.920       .  S
C1064      C1065   1.405       .  A
C1065      C1066   1.401       .  A
C1065      H1068   1.083       .  S
C1066     Br1072   1.919       .  S
C1073      C1074   1.418       .  A
C1073      C1078   1.409       .  A
C1074      C1075   1.405       .  A
C1074     Br1090   1.922       .  S
C1075      C1076   1.403       .  A
C1075      H1079   1.084       .  S
C1076      C1080   1.489       .  S
C1076      C1077   1.408       .  A
C1077      C1078   1.401       .  A
C1077     Br1089   1.918       .  S
C1078      H1081   1.084       .  S
C1080      C1082   1.403       .  A
C1080      C1086   1.406       .  A
C1082      C1083   1.404       .  A
C1082      H1087   1.084       .  S
C1083      C1084   1.420   1_545  A
C1083     Br1091   1.922       .  S
C1084      C1085   1.412       .  A
C1085      C1086   1.403   1_565  A
C1085      H1088   1.083       .  S
C1086     Br1092   1.918       .  S
C1093      C1094   1.420       .  A
C1093      C1098   1.408       .  A
C1094      C1095   1.403       .  A
C1094     Br1110   1.923       .  S
C1095      C1096   1.401       .  A
C1095      H1099   1.084       .  S
C1096      C1100   1.485       .  S
C1096      C1097   1.408       .  A
C1097      C1098   1.402       .  A
C1097     Br1109   1.918       .  S
C1098      H1101   1.083       .  S
C1100      C1102   1.404       .  A
C1100      C1106   1.409       .  A
C1102      C1103   1.403       .  A
C1102      H1107   1.083       .  S
C1103      C1104   1.409       .  A
C1103     Br1111   1.919       .  S
C1104      C1105   1.404       .  A
C1105      C1106   1.402       .  A
C1105      H1108   1.083       .  S
C1106     Br1112   1.918       .  S
C1113      C1114   1.418       .  A
C1113      C1118   1.409       .  A
C1114      C1115   1.403       .  A
C1114     Br1130   1.922       .  S
C1115      C1116   1.402       .  A
C1115      H1119   1.083       .  S
C1116      C1120   1.477   1_455  S
C1116      C1117   1.404       .  A
C1117      C1118   1.395       .  A
C1117     Br1129   1.920       .  S
C1118      H1121   1.083       .  S
C1120      C1122   1.403       .  A
C1120      C1126   1.406       .  A
C1122      C1123   1.403       .  A
C1122      H1127   1.084       .  S
C1123      C1124   1.414       .  A
C1123     Br1131   1.920       .  S
C1124      C1125   1.406       .  A
C1125      C1126   1.395       .  A
C1125      H1128   1.084       .  S
C1126     Br1132   1.920       .  S
C1133      C1134   1.409       .  A
C1133      C1138   1.402       .  A
C1134      C1135   1.397       .  A
C1134     Br1150   1.920       .  S
C1135      C1136   1.402       .  A
C1135      H1139   1.084       .  S
C1136      C1140   1.474       .  S
C1136      C1137   1.408       .  A
C1137      C1138   1.398       .  A
C1137     Br1149   1.919       .  S
C1138      H1141   1.084       .  S
C1140      C1142   1.393       .  A
C1140      C1146   1.408       .  A
C1142      C1143   1.391       .  A
C1142      H1147   1.084       .  S
C1143      C1144   1.422       .  A
C1143     Br1151   1.924       .  S
C1144      C1145   1.407       .  A
C1145      C1146   1.404       .  A
C1145      H1148   1.083       .  S
C1146     Br1152   1.917       .  S
C1153      C1154   1.418       .  A
C1153      C1158   1.410       .  A
C1154      C1155   1.405       .  A
C1154     Br1170   1.922       .  S
C1155      C1156   1.402       .  A
C1155      H1159   1.083       .  S
C1156      C1160   1.488       .  S
C1156      C1157   1.407       .  A
C1157      C1158   1.403       .  A
C1157     Br1169   1.917       .  S
C1158      H1161   1.083       .  S
C1160      C1162   1.399       .  A
C1160      C1166   1.407       .  A
C1162      C1163   1.405       .  A
C1162      H1167   1.084       .  S
C1163      C1164   1.425       .  A
C1163     Br1171   1.923       .  S
C1164      C1165   1.409       .  A
C1165      C1166   1.403       .  A
C1165      H1168   1.083       .  S
C1166     Br1172   1.918       .  S
C1173      C1174   1.415       .  A
C1173      C1178   1.404       .  A
C1174      C1175   1.406       .  A
C1174     Br1190   1.919       .  S
C1175      C1176   1.404       .  A
C1175      H1179   1.083       .  S
C1176      C1180   1.486       .  S
C1176      C1177   1.408       .  A
C1177      C1178   1.400       .  A
C1177     Br1189   1.918       .  S
C1178      H1181   1.084       .  S
C1180      C1182   1.403       .  A
C1180      C1186   1.411       .  A
C1182      C1183   1.403   1_565  A
C1182      H1187   1.083       .  S
C1183      C1184   1.411       .  A
C1183     Br1191   1.918       .  S
C1184      C1185   1.404   1_545  A
C1185      C1186   1.403       .  A
C1185      H1188   1.084       .  S
C1186     Br1192   1.920       .  S
C1193      C1194   1.416       .  A
C1193      C1198   1.406       .  A
C1194      C1195   1.402       .  A
C1194     Br1210   1.921       .  S
C1195      C1196   1.403       .  A
C1195      H1199   1.084       .  S
C1196      C1200   1.474       .  S
C1196      C1197   1.405       .  A
C1197      C1198   1.391       .  A
C1197     Br1209   1.921       .  S
C1198      H1201   1.084       .  S
C1200      C1202   1.403       .  A
C1200      C1206   1.407       .  A
C1202      C1203   1.397       .  A
C1202      H1207   1.084       .  S
C1203      C1204   1.409       .  A
C1203     Br1211   1.921       .  S
C1204      C1205   1.404       .  A
C1205      C1206   1.397       .  A
C1205      H1208   1.084       .  S
C1206     Br1212   1.919       .  S
C1213      C1214   1.417       .  A
C1213      C1218   1.407       .  A
C1214      C1215   1.402       .  A
C1214     Br1230   1.921       .  S
C1215      C1216   1.403       .  A
C1215      H1219   1.084       .  S
C1216      C1220   1.487   1_655  S
C1216      C1217   1.409       .  A
C1217      C1218   1.400       .  A
C1217     Br1229   1.919       .  S
C1218      H1221   1.083       .  S
C1220      C1222   1.402       .  A
C1220      C1226   1.411       .  A
C1222      C1223   1.396       .  A
C1222      H1227   1.084       .  S
C1223      C1224   1.412       .  A
C1223     Br1231   1.922       .  S
C1224      C1225   1.405       .  A
C1225      C1226   1.405       .  A
C1225      H1228   1.084       .  S
C1226     Br1232   1.918       .  S
C1233      C1234   1.421       .  A
C1233      C1238   1.411       .  A
C1234      C1235   1.402       .  A
C1234     Br1250   1.922       .  S
C1235      C1236   1.401       .  A
C1235      H1239   1.084       .  S
C1236      C1240   1.490   1_565  S
C1236      C1237   1.408   1_565  A
C1237      C1238   1.404   1_545  A
C1237     Br1249   1.919       .  S
C1238      H1241   1.083       .  S
C1240      C1242   1.405       .  A
C1240      C1246   1.409   1_545  A
C1242      C1243   1.407       .  A
C1242      H1247   1.083       .  S
C1243      C1244   1.417       .  A
C1243     Br1251   1.920       .  S
C1244      C1245   1.407       .  A
C1245      C1246   1.399   1_545  A
C1245      H1248   1.083       .  S
C1246     Br1252   1.920       .  S
C1253      C1254   1.414       .  A
C1253      C1258   1.408       .  A
C1254      C1255   1.396       .  A
C1254     Br1270   1.920       .  S
C1255      C1256   1.399       .  A
C1255      H1259   1.084       .  S
C1256      C1260   1.464       .  S
C1256      C1257   1.402       .  A
C1257      C1258   1.391       .  A
C1257     Br1269   1.920       .  S
C1258      H1261   1.083       .  S
C1260      C1262   1.404       .  A
C1260      C1266   1.404       .  A
C1262      C1263   1.400       .  A
C1262      H1267   1.083       .  S
C1263      C1264   1.406       .  A
C1263     Br1271   1.919       .  S
C1264      C1265   1.402       .  A
C1265      C1266   1.388       .  A
C1265      H1268   1.083       .  S
C1266     Br1272   1.922       .  S
C1273      C1274   1.412       .  A
C1273      C1278   1.404       .  A
C1274      C1275   1.401       .  A
C1274     Br1290   1.918       .  S
C1275      C1276   1.401       .  A
C1275      H1279   1.083       .  S
C1276      C1280   1.482       .  S
C1276      C1277   1.409       .  A
C1277      C1278   1.402       .  A
C1277     Br1289   1.918       .  S
C1278      H1281   1.084       .  S
C1280      C1282   1.402   1_545  A
C1280      C1286   1.408       .  A
C1282      C1283   1.405       .  A
C1282      H1287   1.083       .  S
C1283      C1284   1.416       .  A
C1283     Br1291   1.920       .  S
C1284      C1285   1.405   1_565  A
C1285      C1286   1.397       .  A
C1285      H1288   1.084       .  S
C1286     Br1292   1.920       .  S
C1293      C1294   1.413       .  A
C1293      C1298   1.406       .  A
C1294      C1295   1.404       .  A
C1294     Br1310   1.921       .  S
C1295      C1296   1.405       .  A
C1295      H1299   1.083       .  S
C1296      C1300   1.488       .  S
C1296      C1297   1.409       .  A
C1297      C1298   1.401       .  A
C1297     Br1309   1.919       .  S
C1298      H1301   1.084       .  S
C1300      C1302   1.401       .  A
C1300      C1306   1.411       .  A
C1302      C1303   1.403       .  A
C1302      H1307   1.083       .  S
C1303      C1304   1.418       .  A
C1303     Br1311   1.922       .  S
C1304      C1305   1.406       .  A
C1305      C1306   1.401       .  A
C1305      H1308   1.083       .  S
C1306     Br1312   1.917       .  S
