geometry optimzed in LAMMPS
_audit_creation_date              2020-12-01 
_audit_creation_method            'lammps2cif' 
_symmetry_space_group_name_H-M    'P1' 
_symmetry_Int_Tables_number       1 
_symmetry_cell_setting            triclinic 
loop_ 
_symmetry_equiv_pos_as_xyz 
  x,y,z 
_cell_length_a                    36.43234444 
_cell_length_b                    27.693685610871622 
_cell_length_c                    36.66146896185903 
_cell_angle_alpha                 89.99936562845946 
_cell_angle_beta                  108.86737429780275 
_cell_angle_gamma                 90.00045458119413 
loop_ 
_atom_site_label 
_atom_site_type_symbol 
_atom_site_fract_x 
_atom_site_fract_y 
_atom_site_fract_z 
_atom_site_charge 
O1          O  0.37277361  0.76357990  0.18125330    -0.80100
C2          C  0.27956516  0.87688672  0.05674704     0.99300
O3          O  0.27156348  0.86952378  0.08759316    -0.69200
O4          O  0.26752881  0.78361380  0.11440666    -0.72800
Al5        Al  0.29997115  0.83665336  0.13586902     1.49000
C6          C  0.27565236  0.74008726  0.12191091     0.94500
O7          O  0.34152531  0.74604155  0.07334454    -0.79000
O8          O  0.41285455  0.84921030  0.12959457    -0.72600
Al9        Al  0.35647269  0.75713379  0.12729576     1.90100
O10         O  0.36816094  0.81308547  0.06070016    -0.71600
O11         O  0.35805959  0.91505914  0.12363561    -0.71500
O12         O  0.31379407  0.87329667  0.05638811    -0.77100
O13         O  0.32402526  0.89467034  0.16051330    -0.75300
O14         O  0.33921444  0.81821273  0.11984859    -1.11500
O15         O  0.32173368  0.80382560  0.18581908    -0.70700
C16         C  0.35138609  0.77692374  0.20048298     1.00100
C17         C  0.35537969  0.77106532  0.05198364     0.96400
Al18       Al  0.36116619  0.85940485  0.09512462     1.55600
O19         O  0.30991808  0.72579789  0.12907648    -0.75300
C20         C  0.34379092  0.92513076  0.14954668     1.00600
C21         C  0.42827671  0.80803428  0.13138075     0.95500
O22         O  0.40820024  0.77043204  0.12854633    -0.80600
O23         O  0.10238391  0.76358619  0.32618921    -0.80100
C24         C  0.19559007  0.87687276  0.45071414     0.99300
O25         O  0.20361055  0.86947884  0.41988184    -0.69200
O26         O  0.20763309  0.78358309  0.39304827    -0.72800
Al27       Al  0.17520574  0.83663612  0.37159142     1.49000
C28         C  0.19950470  0.74006382  0.38552019     0.94500
O29         O  0.13365577  0.74603852  0.43409837    -0.79000
O30         O  0.06231075  0.84918997  0.37782511    -0.72600
Al31       Al  0.11869404  0.75712570  0.38014572     1.90100
O32         O  0.10700071  0.81307534  0.44673371    -0.71600
O33         O  0.11709564  0.91505022  0.38379056    -0.71500
O34         O  0.16135231  0.87331006  0.45105248    -0.77100
O35         O  0.15117967  0.89467185  0.34695859    -0.75300
O36         O  0.13595314  0.81820465  0.38759554    -1.11500
O37         O  0.15343066  0.80382863  0.32162836    -0.70700
C38         C  0.12376861  0.77693967  0.30695836     1.00100
C39         C  0.11980002  0.77106272  0.45545853     0.96400
Al40       Al  0.11399045  0.85939824  0.41230638     1.55600
O41         O  0.16523711  0.72578033  0.37834412    -0.75300
C42         C  0.13139438  0.92512780  0.35790249     1.00600
C43         C  0.04689183  0.80801510  0.37605656     0.95500
O44         O  0.06697129  0.77041377  0.37890860    -0.80600
O45         O  0.31724858  0.72202076  0.37924185    -0.80100
C46         C  0.44551416  0.61485594  0.45078200     0.99300
O47         O  0.41132430  0.61868359  0.45121246    -0.69200
O48         O  0.35727318  0.67928522  0.44695974    -0.72800
Al49       Al  0.36400727  0.63279835  0.41248609     1.49000
C50         C  0.37063397  0.72103917  0.45582563     0.94500
O51         O  0.41564099  0.76598637  0.37852627    -0.79000
O52         O  0.40357345  0.68802442  0.32172904    -0.72600
Al53       Al  0.36909585  0.73498162  0.38037343     1.90100
O54         O  0.45794399  0.70805558  0.39299980    -0.71600
O55         O  0.40085725  0.59725355  0.34702919    -0.71500
O56         O  0.45348818  0.62211189  0.41990544    -0.77100
O57         O  0.36688887  0.57692357  0.38398785    -0.75300
O58         O  0.38609227  0.67380825  0.38772196    -1.11500
O59         O  0.31238094  0.64326113  0.37801713    -0.70700
C60         C  0.29704402  0.68447489  0.37629273     1.00100
C61         C  0.44985419  0.75163720  0.38559746     0.96400
Al62       Al  0.42521502  0.65510820  0.37164314     1.55600
O63         O  0.38438754  0.74593990  0.43433619    -0.75300
C64         C  0.38110706  0.56681737  0.35802883     1.00600
C65         C  0.37410884  0.71525470  0.30714466     0.95500
O66         O  0.35273558  0.72869084  0.32638150    -0.80600
O67         O  0.15792097  0.72200496  0.12821700    -0.80100
C68         C  0.02964413  0.61485769  0.05665759     0.99300
O69         O  0.06383095  0.61869312  0.05622000    -0.69200
O70         O  0.11789437  0.67928065  0.06047741    -0.72800
Al71       Al  0.11115279  0.63279308  0.09494371     1.49000
C72         C  0.10455044  0.72104175  0.05162007     0.94500
O73         O  0.05952226  0.76597932  0.12889948    -0.79000
O74         O  0.07159032  0.68800862  0.18571862    -0.72600
Al75       Al  0.10607217  0.73497414  0.12707072     1.90100
O76         O  0.01721921  0.70804457  0.11446187    -0.71600
O77         O  0.07432116  0.59723476  0.16041207    -0.71500
O78         O  0.02167708  0.62210172  0.08753947    -0.77100
O79         O  0.10826842  0.57690967  0.12343295    -0.75300
O80         O  0.08907381  0.67380119  0.11971869    -1.11500
O81         O  0.16278462  0.64324414  0.12940517    -0.70700
C82         C  0.17812246  0.68446055  0.13114395     1.00100
C83         C  0.02531052  0.75163059  0.12184547     0.96400
Al84       Al  0.04995418  0.65509376  0.13580416     1.55600
O85         O  0.09079773  0.74594083  0.07310973    -0.75300
C86         C  0.09406323  0.56679886  0.14940069     1.00600
C87         C  0.10104298  0.71525829  0.20029852     0.95500
O88         O  0.12241875  0.72869061  0.18106340    -0.80600
O89         O  0.40796538  0.22198821  0.12820583    -0.80100
C90         C  0.27969416  0.11484014  0.05665646     0.99300
O91         O  0.31387976  0.11868743  0.05621700    -0.69200
O92         O  0.36795013  0.17926796  0.06048782    -0.72800
Al93       Al  0.36119720  0.13278038  0.09495115     1.49000
C94         C  0.35458488  0.22101874  0.05161784     0.94500
O95         O  0.30956695  0.26596818  0.12890851    -0.79000
O96         O  0.32162663  0.18803136  0.18570569    -0.72600
Al97       Al  0.35611767  0.23496288  0.12706772     1.90100
O98         O  0.26726682  0.20803268  0.11441711    -0.71600
O99         O  0.32436568  0.09725878  0.16042712    -0.71500
O100        O  0.27172898  0.12207619  0.08754049    -0.77100
O101        O  0.35829617  0.07690300  0.12343848    -0.75300
O102        O  0.33911796  0.17379231  0.11971730    -1.11500
O103        O  0.41281939  0.14322527  0.12943072    -0.70700
C104        C  0.42816383  0.18443544  0.13116021     1.00100
C105        C  0.27535189  0.25161451  0.12182360     0.96400
Al106      Al  0.29999624  0.15509583  0.13579586     1.55600
O107        O  0.34082918  0.24591965  0.07310483    -0.75300
C108        C  0.34409637  0.06681145  0.14941400     1.00600
C109        C  0.35109543  0.21525393  0.20029376     0.95500
O110        O  0.37247679  0.22867407  0.18106088    -0.80600
O111        O  0.06725087  0.22198126  0.37921445    -0.80100
C112        C  0.19554533  0.11485358  0.45079163     0.99300
O113        O  0.16136191  0.11870367  0.45123562    -0.69200
O114        O  0.10728920  0.17927774  0.44696393    -0.72800
Al115      Al  0.11403759  0.13278779  0.41250796     1.49000
C116        C  0.12062650  0.22104288  0.45581287     0.94500
O117        O  0.16564898  0.26597523  0.37852491    -0.79000
O118        O  0.15361055  0.18802694  0.32173658    -0.72600
Al119      Al  0.11909784  0.23496421  0.38035862     1.90100
O120        O  0.20795987  0.20804971  0.39301205    -0.71600
O121        O  0.15085951  0.09725654  0.34702609    -0.71500
O122        O  0.20350528  0.12208815  0.41990513    -0.77100
O123        O  0.11693427  0.07690763  0.38402301    -0.75300
O124        O  0.13610754  0.17379812  0.38772622    -1.11500
O125        O  0.06240249  0.14321885  0.37804760    -0.70700
C126        C  0.04705679  0.18443135  0.37629780     1.00100
C127        C  0.19986570  0.25163066  0.38560256     0.96400
Al128      Al  0.17523259  0.15510046  0.37164784     1.55600
O129        O  0.13436859  0.24594614  0.43431639    -0.75300
C130        C  0.13112800  0.06681225  0.35804369     1.00600
C131        C  0.12414638  0.21525213  0.30714339     0.95500
O132        O  0.10275254  0.22866114  0.32636611    -0.80600
O133        O  0.35241005  0.26359407  0.32617508    -0.80100
C134        C  0.44562505  0.37687079  0.45070312     0.99300
O135        O  0.45363780  0.36948012  0.41986783    -0.69200
O136        O  0.45765788  0.28357774  0.39304157    -0.72800
Al137      Al  0.42523003  0.33663445  0.37158558     1.49000
C138        C  0.44952635  0.24005640  0.38552091     0.94500
O139        O  0.38365857  0.24601093  0.43407879    -0.79000
O140        O  0.31233161  0.34918726  0.37784895    -0.72600
Al141      Al  0.36870994  0.25712193  0.38013126     1.90100
O142        O  0.35704171  0.31306125  0.44674202    -0.71600
O143        O  0.36711619  0.41504086  0.38379435    -0.71500
O144        O  0.41139101  0.37330071  0.45105083    -0.77100
O145        O  0.40119780  0.39467329  0.34695596    -0.75300
O146        O  0.38597633  0.31819890  0.38759249    -1.11500
O147        O  0.40346470  0.30382580  0.32162604    -0.70700
C148        C  0.37380668  0.27693433  0.30695282     1.00100
C149        C  0.36981656  0.27103572  0.45544864     0.96400
Al150      Al  0.36402126  0.35938852  0.41231430     1.55600
O151        O  0.41525614  0.22577850  0.37833903    -0.75300
C152        C  0.38141031  0.42512460  0.35790386     1.00600
C153        C  0.29690855  0.30801260  0.37606133     0.95500
O154        O  0.31698443  0.27041203  0.37889025    -0.80600
O155        O  0.12281213  0.26355369  0.18124569    -0.80100
C156        C  0.02959568  0.37685262  0.05673132     0.99300
O157        O  0.02156902  0.36942097  0.08755432    -0.69200
O158        O  0.01756271  0.28353429  0.11440375    -0.72800
Al159      Al  0.04998282  0.33659909  0.13584541     1.49000
C160        C  0.02569702  0.24001660  0.12193132     0.94500
O161        O  0.09153139  0.24600550  0.07333767    -0.79000
O162        O  0.16288501  0.34914446  0.12959750    -0.72600
Al163      Al  0.10649870  0.25709173  0.12728893     1.90100
O164        O  0.11816484  0.31305669  0.06069216    -0.71600
O165        O  0.10812053  0.41501336  0.12366835    -0.71500
O166        O  0.06383667  0.37331647  0.05639833    -0.77100
O167        O  0.07399169  0.39465403  0.16046238    -0.75300
O168        O  0.08923748  0.31817309  0.11984094    -1.11500
O169        O  0.07177100  0.30380755  0.18581111    -0.70700
C170        C  0.10143222  0.27691695  0.20047918     1.00100
C171        C  0.10537591  0.27103888  0.05197315     0.96400
Al172      Al  0.11120087  0.35937219  0.09513323     1.55600
O173        O  0.05996421  0.22573971  0.12909977    -0.75300
C174        C  0.09379946  0.42510104  0.14953753     1.00600
C175        C  0.17830035  0.30796952  0.13135955     0.95500
O176        O  0.15821939  0.27037133  0.12851444    -0.80600
C177        C  0.47589253  0.38577434  0.48745753    -0.11500
C178        C  0.99933668  0.38576677  0.01997282    -0.13100
C179        C  0.10949962  0.25679930  0.23864816    -0.11500
C180        C  0.11632135  0.23562361  0.26908175    -0.13100
C181        C  0.10981713  0.25181654  0.01817447    -0.11500
C182        C  0.11689093  0.24020862  0.48992067    -0.13100
C183        C  0.22955437  0.28376152  0.38163988    -0.11500
C184        C  0.25782189  0.30173525  0.37657032    -0.13100
C185        C  0.00787388  0.19065551  0.37664787    -0.11500
C186        C  0.47933049  0.20808111  0.38156327    -0.13100
C187        C  0.35893862  0.23561261  0.23836193    -0.11500
C188        C  0.36575999  0.25679196  0.26879394    -0.13100
C189        C  0.36537132  0.25179813  0.48924306    -0.11500
C190        C  0.35830663  0.24017707  0.01749997    -0.13100
C191        C  0.46735138  0.19064271  0.13082577    -0.11500
C192        C  0.99589921  0.20804814  0.12590800    -0.13100
C193        C  0.24565394  0.28373390  0.12577403    -0.11500
C194        C  0.21738263  0.30169629  0.13084139    -0.13100
C195        C  0.24938872  0.10582741  0.01995513    -0.11500
C196        C  0.22585343  0.10583339  0.48749026    -0.13100
C197        C  0.09735219  0.47411869  0.16336323    -0.11500
C198        C  0.09752990  0.51778359  0.16326101    -0.13100
C199        C  0.37784538  0.47414011  0.34407392    -0.11500
C200        C  0.37765236  0.51780387  0.34417032    -0.13100
C201        C  0.47581306  0.60584346  0.48748703    -0.11500
C202        C  0.99934110  0.60584529  0.01995514    -0.13100
C203        C  0.12784023  0.97414124  0.34407269    -0.11500
C204        C  0.12766127  0.01780420  0.34417559    -0.13100
C205        C  0.11570406  0.75681169  0.26879289    -0.11500
C206        C  0.10887635  0.73562933  0.23836118    -0.13100
C207        C  0.10829153  0.74021186  0.01751314    -0.11500
C208        C  0.11536235  0.75183494  0.48925957    -0.13100
C209        C  0.22930990  0.70810158  0.38154958    -0.11500
C210        C  0.25785839  0.69069455  0.37663326    -0.13100
C211        C  0.47954331  0.78376604  0.38163896    -0.11500
C212        C  0.00780814  0.80174199  0.37656812    -0.13100
C213        C  0.34735869  0.97414172  0.16338042    -0.11500
C214        C  0.34755132  0.01780368  0.16328045    -0.13100
C215        C  0.36626166  0.73560300  0.26907401    -0.11500
C216        C  0.35943763  0.75677878  0.23864061    -0.13100
C217        C  0.36690575  0.74020402  0.48993937    -0.11500
C218        C  0.35983311  0.75183115  0.01819129    -0.13100
C219        C  0.46736237  0.80175581  0.13087145    -0.11500
C220        C  0.99562518  0.78376986  0.12580195    -0.13100
C221        C  0.21730345  0.69069257  0.13079038    -0.11500
C222        C  0.24584513  0.70811750  0.12587024    -0.13100
C223        C  0.24929193  0.88578525  0.01999330    -0.11500
C224        C  0.22585027  0.88577907  0.48747535    -0.13100
O225        O  0.37277354  0.76357976  0.68125325    -0.80100
C226        C  0.27956516  0.87688693  0.55674693     0.99300
O227        O  0.27156347  0.86952383  0.58759312    -0.69200
O228        O  0.26752883  0.78361388  0.61440675    -0.72800
Al229      Al  0.29997114  0.83665339  0.63586898     1.49000
C230        C  0.27565232  0.74008733  0.62191079     0.94500
O231        O  0.34152523  0.74604161  0.57334444    -0.79000
O232        O  0.41285452  0.84921022  0.62959463    -0.72600
Al233      Al  0.35647262  0.75713385  0.62729567     1.90100
O234        O  0.36816098  0.81308539  0.56070012    -0.71600
O235        O  0.35805962  0.91505906  0.62363565    -0.71500
O236        O  0.31379411  0.87329658  0.55638808    -0.77100
O237        O  0.32402525  0.89467030  0.66051331    -0.75300
O238        O  0.33921440  0.81821277  0.61984851    -1.11500
O239        O  0.32173371  0.80382559  0.68581905    -0.70700
C240        C  0.35138614  0.77692355  0.70048292     1.00100
C241        C  0.35537972  0.77106537  0.55198368     0.96400
Al242      Al  0.36116618  0.85940483  0.59512461     1.55600
O243        O  0.30991802  0.72579787  0.62907641    -0.75300
C244        C  0.34379100  0.92513079  0.64954680     1.00600
C245        C  0.42827674  0.80803429  0.63138087     0.95500
O246        O  0.40820019  0.77043199  0.62854624    -0.80600
O247        O  0.10238386  0.76358639  0.82618919    -0.80100
C248        C  0.19558990  0.87687271  0.95071408     0.99300
O249        O  0.20361052  0.86947888  0.91988188    -0.69200
O250        O  0.20763310  0.78358318  0.89304833    -0.72800
Al251      Al  0.17520571  0.83663622  0.87159147     1.49000
C252        C  0.19950480  0.74006384  0.88552023     0.94500
O253        O  0.13365578  0.74603845  0.93409838    -0.79000
O254        O  0.06231076  0.84919001  0.87782521    -0.72600
Al255      Al  0.11869405  0.75712577  0.88014567     1.90100
O256        O  0.10700070  0.81307521  0.94673373    -0.71600
O257        O  0.11709566  0.91505023  0.88379065    -0.71500
O258        O  0.16135231  0.87330991  0.95105253    -0.77100
O259        O  0.15117958  0.89467190  0.84695853    -0.75300
O260        O  0.13595305  0.81820477  0.88759553    -1.11500
O261        O  0.15343072  0.80382863  0.82162842    -0.70700
C262        C  0.12376870  0.77693980  0.80695846     1.00100
C263        C  0.11980003  0.77106264  0.95545848     0.96400
Al264      Al  0.11399039  0.85939823  0.91230645     1.55600
O265        O  0.16523708  0.72578041  0.87834404    -0.75300
C266        C  0.13139425  0.92512787  0.85790260     1.00600
C267        C  0.04689189  0.80801513  0.87605656     0.95500
O268        O  0.06697129  0.77041379  0.87890854    -0.80600
O269        O  0.31724862  0.72202070  0.87924185    -0.80100
C270        C  0.44551418  0.61485596  0.95078199     0.99300
O271        O  0.41132434  0.61868348  0.95121256    -0.69200
O272        O  0.35727324  0.67928517  0.94695975    -0.72800
Al273      Al  0.36400733  0.63279833  0.91248611     1.49000
C274        C  0.37063390  0.72103925  0.95582572     0.94500
O275        O  0.41564104  0.76598644  0.87852633    -0.79000
O276        O  0.40357353  0.68802440  0.82172904    -0.72600
Al277      Al  0.36909591  0.73498152  0.88037341     1.90100
O278        O  0.45794396  0.70805555  0.89299988    -0.71600
O279        O  0.40085725  0.59725357  0.84702921    -0.71500
O280        O  0.45348812  0.62211188  0.91990545    -0.77100
O281        O  0.36688880  0.57692358  0.88398782    -0.75300
O282        O  0.38609237  0.67380818  0.88772198    -1.11500
O283        O  0.31238096  0.64326113  0.87801717    -0.70700
C284        C  0.29704387  0.68447485  0.87629271     1.00100
C285        C  0.44985427  0.75163719  0.88559755     0.96400
Al286      Al  0.42521507  0.65510817  0.87164315     1.55600
O287        O  0.38438742  0.74593992  0.93433608    -0.75300
C288        C  0.38110707  0.56681748  0.85802884     1.00600
C289        C  0.37410901  0.71525453  0.80714466     0.95500
O290        O  0.35273568  0.72869080  0.82638150    -0.80600
O291        O  0.15792101  0.72200500  0.62821707    -0.80100
C292        C  0.02964402  0.61485787  0.55665760     0.99300
O293        O  0.06383096  0.61869307  0.55622006    -0.69200
O294        O  0.11789430  0.67928069  0.56047741    -0.72800
Al295      Al  0.11115276  0.63279306  0.59494367     1.49000
C296        C  0.10455043  0.72104193  0.55162008     0.94500
O297        O  0.05952231  0.76597943  0.62889949    -0.79000
O298        O  0.07159037  0.68800861  0.68571870    -0.72600
Al299      Al  0.10607218  0.73497411  0.62707076     1.90100
O300        O  0.01721932  0.70804464  0.61446203    -0.71600
O301        O  0.07432108  0.59723477  0.66041201    -0.71500
O302        O  0.02167707  0.62210181  0.58753954    -0.77100
O303        O  0.10826842  0.57690976  0.62343295    -0.75300
O304        O  0.08907384  0.67380112  0.61971872    -1.11500
O305        O  0.16278455  0.64324418  0.62940515    -0.70700
C306        C  0.17812244  0.68446061  0.63114392     1.00100
C307        C  0.02531073  0.75163079  0.62184555     0.96400
Al308      Al  0.04995422  0.65509379  0.63580419     1.55600
O309        O  0.09079775  0.74594090  0.57310982    -0.75300
C310        C  0.09406324  0.56679905  0.64940064     1.00600
C311        C  0.10104280  0.71525822  0.70029847     0.95500
O312        O  0.12241869  0.72869066  0.68106342    -0.80600
O313        O  0.40796539  0.22198816  0.62820585    -0.80100
C314        C  0.27969411  0.11484016  0.55665658     0.99300
O315        O  0.31387977  0.11868733  0.55621708    -0.69200
O316        O  0.36795021  0.17926792  0.56048789    -0.72800
Al317      Al  0.36119723  0.13278027  0.59495121     1.49000
C318        C  0.35458495  0.22101863  0.55161783     0.94500
O319        O  0.30956696  0.26596818  0.62890861    -0.79000
O320        O  0.32162660  0.18803126  0.68570568    -0.72600
Al321      Al  0.35611773  0.23496286  0.62706780     1.90100
O322        O  0.26726690  0.20803263  0.61441722    -0.71600
O323        O  0.32436555  0.09725877  0.66042705    -0.71500
O324        O  0.27172893  0.12207609  0.58754047    -0.77100
O325        O  0.35829618  0.07690299  0.62343852    -0.75300
O326        O  0.33911801  0.17379229  0.61971734    -1.11500
O327        O  0.41281944  0.14322516  0.62943076    -0.70700
C328        C  0.42816399  0.18443533  0.63116018     1.00100
C329        C  0.27535204  0.25161449  0.62182370     0.96400
Al330      Al  0.29999625  0.15509580  0.63579588     1.55600
O331        O  0.34082922  0.24591967  0.57310491    -0.75300
C332        C  0.34409647  0.06681136  0.64941414     1.00600
C333        C  0.35109542  0.21525374  0.70029386     0.95500
O334        O  0.37247683  0.22867389  0.68106093    -0.80600
O335        O  0.06725099  0.22198139  0.87921448    -0.80100
C336        C  0.19554535  0.11485360  0.95079164     0.99300
O337        O  0.16136187  0.11870379  0.95123552    -0.69200
O338        O  0.10728923  0.17927775  0.94696381    -0.72800
Al339      Al  0.11403756  0.13278781  0.91250789     1.49000
C340        C  0.12062658  0.22104288  0.95581285     0.94500
O341        O  0.16564907  0.26597516  0.87852485    -0.79000
O342        O  0.15361063  0.18802698  0.82173667    -0.72600
Al343      Al  0.11909791  0.23496423  0.88035859     1.90100
O344        O  0.20795997  0.20804967  0.89301209    -0.71600
O345        O  0.15085957  0.09725648  0.84702604    -0.71500
O346        O  0.20350529  0.12208816  0.91990506    -0.77100
O347        O  0.11693428  0.07690766  0.88402294    -0.75300
O348        O  0.13610756  0.17379808  0.88772619    -1.11500
O349        O  0.06240255  0.14321893  0.87804751    -0.70700
C350        C  0.04705681  0.18443163  0.87629772     1.00100
C351        C  0.19986593  0.25163054  0.88560272     0.96400
Al352      Al  0.17523259  0.15510042  0.87164784     1.55600
O353        O  0.13436861  0.24594620  0.93431628    -0.75300
C354        C  0.13112803  0.06681226  0.85804360     1.00600
C355        C  0.12414634  0.21525236  0.80714328     0.95500
O356        O  0.10275260  0.22866122  0.82636606    -0.80600
O357        O  0.35241002  0.26359400  0.82617499    -0.80100
C358        C  0.44562503  0.37687078  0.95070300     0.99300
O359        O  0.45363772  0.36948018  0.91986773    -0.69200
O360        O  0.45765789  0.28357777  0.89304143    -0.72800
Al361      Al  0.42522996  0.33663446  0.87158552     1.49000
C362        C  0.44952637  0.24005641  0.88552083     0.94500
O363        O  0.38365855  0.24601087  0.93407866    -0.79000
O364        O  0.31233160  0.34918711  0.87784888    -0.72600
Al365      Al  0.36870996  0.25712185  0.88013117     1.90100
O366        O  0.35704174  0.31306122  0.94674193    -0.71600
O367        O  0.36711603  0.41504080  0.88379416    -0.71500
O368        O  0.41139096  0.37330076  0.95105072    -0.77100
O369        O  0.40119784  0.39467335  0.84695599    -0.75300
O370        O  0.38597626  0.31819887  0.88759241    -1.11500
O371        O  0.40346463  0.30382587  0.82162603    -0.70700
C372        C  0.37380644  0.27693440  0.80695268     1.00100
C373        C  0.36981668  0.27103571  0.95544854     0.96400
Al374      Al  0.36402120  0.35938853  0.91231417     1.55600
O375        O  0.41525619  0.22577847  0.87833889    -0.75300
C376        C  0.38141029  0.42512455  0.85790373     1.00600
C377        C  0.29690857  0.30801227  0.87606134     0.95500
O378        O  0.31698448  0.27041187  0.87889025    -0.80600
O379        O  0.12281209  0.26355375  0.68124571    -0.80100
C380        C  0.02959561  0.37685248  0.55673138     0.99300
O381        O  0.02156900  0.36942097  0.58755442    -0.69200
O382        O  0.01756271  0.28353432  0.61440380    -0.72800
Al383      Al  0.04998277  0.33659909  0.63584545     1.49000
C384        C  0.02569696  0.24001662  0.62193127     0.94500
O385        O  0.09153133  0.24600548  0.57333769    -0.79000
O386        O  0.16288495  0.34914447  0.62959749    -0.72600
Al387      Al  0.10649865  0.25709175  0.62728898     1.90100
O388        O  0.11816482  0.31305671  0.56069222    -0.71600
O389        O  0.10812054  0.41501341  0.62366842    -0.71500
O390        O  0.06383665  0.37331639  0.55639839    -0.77100
O391        O  0.07399165  0.39465391  0.66046238    -0.75300
O392        O  0.08923746  0.31817317  0.61984096    -1.11500
O393        O  0.07177091  0.30380759  0.68581114    -0.70700
C394        C  0.10143210  0.27691706  0.70047933     1.00100
C395        C  0.10537592  0.27103885  0.55197328     0.96400
Al396      Al  0.11120085  0.35937224  0.59513323     1.55600
O397        O  0.05996419  0.22573971  0.62909978    -0.75300
C398        C  0.09379940  0.42510087  0.64953753     1.00600
C399        C  0.17830028  0.30796954  0.63135956     0.95500
O400        O  0.15821939  0.27037130  0.62851444    -0.80600
C401        C  0.47589247  0.38577425  0.98745744    -0.11500
C402        C  0.99933667  0.38576675  0.51997296    -0.13100
C403        C  0.10949956  0.25679940  0.73864805    -0.11500
C404        C  0.11632143  0.23562342  0.76908177    -0.13100
C405        C  0.10981707  0.25181665  0.51817449    -0.11500
C406        C  0.11689099  0.24020868  0.98992053    -0.13100
C407        C  0.22955432  0.28376143  0.88163992    -0.11500
C408        C  0.25782200  0.30173513  0.87657034    -0.13100
C409        C  0.00787399  0.19065556  0.87664789    -0.11500
C410        C  0.47933057  0.20808119  0.88156335    -0.13100
C411        C  0.35893849  0.23561257  0.73836180    -0.11500
C412        C  0.36575989  0.25679210  0.76879393    -0.13100
C413        C  0.36537139  0.25179797  0.98924303    -0.11500
C414        C  0.35830668  0.24017702  0.51750014    -0.13100
C415        C  0.46735129  0.19064240  0.63082571    -0.11500
C416        C  0.99589919  0.20804816  0.62590791    -0.13100
C417        C  0.24565386  0.28373391  0.62577413    -0.11500
C418        C  0.21738269  0.30169639  0.63084143    -0.13100
C419        C  0.24938877  0.10582737  0.51995504    -0.11500
C420        C  0.22585331  0.10583350  0.98749020    -0.13100
C421        C  0.09735219  0.47411879  0.66336323    -0.11500
C422        C  0.09752997  0.51778344  0.66326100    -0.13100
C423        C  0.37784529  0.47414026  0.84407383    -0.11500
C424        C  0.37765234  0.51780383  0.84417034    -0.13100
C425        C  0.47581308  0.60584354  0.98748703    -0.11500
C426        C  0.99934116  0.60584541  0.51995514    -0.13100
C427        C  0.12784021  0.97414129  0.84407278    -0.11500
C428        C  0.12766126  0.01780417  0.84417546    -0.13100
C429        C  0.11570409  0.75681181  0.76879283    -0.11500
C430        C  0.10887633  0.73562942  0.73836128    -0.13100
C431        C  0.10829140  0.74021188  0.51751308    -0.11500
C432        C  0.11536236  0.75183493  0.98925966    -0.13100
C433        C  0.22930982  0.70810174  0.88154966    -0.11500
C434        C  0.25785838  0.69069447  0.87663327    -0.13100
C435        C  0.47954334  0.78376594  0.88163905    -0.11500
C436        C  0.00780819  0.80174203  0.87656819    -0.13100
C437        C  0.34735869  0.97414159  0.66338039    -0.11500
C438        C  0.34755134  0.01780383  0.66328040    -0.13100
C439        C  0.36626176  0.73560303  0.76907409    -0.11500
C440        C  0.35943773  0.75677867  0.73864058    -0.13100
C441        C  0.36690576  0.74020398  0.98993930    -0.11500
C442        C  0.35983312  0.75183106  0.51819114    -0.13100
C443        C  0.46736233  0.80175572  0.63087146    -0.11500
C444        C  0.99562528  0.78377005  0.62580202    -0.13100
C445        C  0.21730345  0.69069254  0.63079043    -0.11500
C446        C  0.24584506  0.70811770  0.62587023    -0.13100
C447        C  0.24929208  0.88578537  0.51999344    -0.11500
C448        C  0.22585030  0.88577901  0.98747539    -0.13100
O449        O  0.87277354  0.76357982  0.18125325    -0.80100
C450        C  0.77956507  0.87688673  0.05674690     0.99300
O451        O  0.77156348  0.86952373  0.08759313    -0.69200
O452        O  0.76752882  0.78361379  0.11440666    -0.72800
Al453      Al  0.79997112  0.83665335  0.13586898     1.49000
C454        C  0.77565240  0.74008728  0.12191088     0.94500
O455        O  0.84152529  0.74604150  0.07334450    -0.79000
O456        O  0.91285451  0.84921023  0.12959457    -0.72600
Al457      Al  0.85647265  0.75713378  0.12729573     1.90100
O458        O  0.86816092  0.81308538  0.06070013    -0.71600
O459        O  0.85805960  0.91505909  0.12363564    -0.71500
O460        O  0.81379408  0.87329666  0.05638809    -0.77100
O461        O  0.82402521  0.89467032  0.16051326    -0.75300
O462        O  0.83921441  0.81821269  0.11984856    -1.11500
O463        O  0.82173367  0.80382558  0.18581907    -0.70700
C464        C  0.85138605  0.77692363  0.20048298     1.00100
C465        C  0.85537978  0.77106528  0.05198371     0.96400
Al466      Al  0.86116616  0.85940480  0.09512462     1.55600
O467        O  0.80991806  0.72579787  0.12907640    -0.75300
C468        C  0.84379090  0.92513074  0.14954668     1.00600
C469        C  0.92827674  0.80803422  0.13138078     0.95500
O470        O  0.90820024  0.77043199  0.12854638    -0.80600
O471        O  0.60238388  0.76358623  0.32618921    -0.80100
C472        C  0.69558985  0.87687276  0.45071409     0.99300
O473        O  0.70361046  0.86947884  0.41988183    -0.69200
O474        O  0.70763312  0.78358312  0.39304830    -0.72800
Al475      Al  0.67520574  0.83663615  0.37159144     1.49000
C476        C  0.69950480  0.74006388  0.38552021     0.94500
O477        O  0.63365577  0.74603851  0.43409834    -0.79000
O478        O  0.56231071  0.84918996  0.37782510    -0.72600
Al479      Al  0.61869406  0.75712572  0.38014570     1.90100
O480        O  0.60700071  0.81307531  0.44673369    -0.71600
O481        O  0.61709560  0.91505023  0.38379054    -0.71500
O482        O  0.66135225  0.87331006  0.45105247    -0.77100
O483        O  0.65117961  0.89467184  0.34695855    -0.75300
O484        O  0.63595315  0.81820466  0.38759553    -1.11500
O485        O  0.65343064  0.80382864  0.32162839    -0.70700
C486        C  0.62376868  0.77693970  0.30695845     1.00100
C487        C  0.61980007  0.77106271  0.45545854     0.96400
Al488      Al  0.61399040  0.85939823  0.41230635     1.55600
O489        O  0.66523706  0.72578039  0.37834408    -0.75300
C490        C  0.63139420  0.92512780  0.35790245     1.00600
C491        C  0.54689186  0.80801508  0.37605655     0.95500
O492        O  0.56697132  0.77041378  0.37890856    -0.80600
O493        O  0.81724859  0.72202073  0.37924177    -0.80100
C494        C  0.94551418  0.61485595  0.45078199     0.99300
O495        O  0.91132429  0.61868356  0.45121246    -0.69200
O496        O  0.85727320  0.67928520  0.44695974    -0.72800
Al497      Al  0.86400730  0.63279838  0.41248606     1.49000
C498        C  0.87063399  0.72103915  0.45582558     0.94500
O499        O  0.91564101  0.76598648  0.37852626    -0.79000
O500        O  0.90357347  0.68802431  0.32172901    -0.72600
Al501      Al  0.86909589  0.73498159  0.38037338     1.90100
O502        O  0.95794396  0.70805562  0.39299979    -0.71600
O503        O  0.90085728  0.59725354  0.34702923    -0.71500
O504        O  0.95348817  0.62211197  0.41990547    -0.77100
O505        O  0.86688884  0.57692360  0.38398781    -0.75300
O506        O  0.88609233  0.67380827  0.38772196    -1.11500
O507        O  0.81238093  0.64326113  0.37801710    -0.70700
C508        C  0.79704391  0.68447491  0.37629270     1.00100
C509        C  0.94985423  0.75163726  0.38559747     0.96400
Al510      Al  0.92521505  0.65510821  0.37164315     1.55600
O511        O  0.88438752  0.74593990  0.43433616    -0.75300
C512        C  0.88110710  0.56681740  0.35802882     1.00600
C513        C  0.87410892  0.71525458  0.30714462     0.95500
O514        O  0.85273564  0.72869075  0.32638150    -0.80600
O515        O  0.65792096  0.72200497  0.12821702    -0.80100
C516        C  0.52964404  0.61485770  0.05665763     0.99300
O517        O  0.56383097  0.61869311  0.05622005    -0.69200
O518        O  0.61789436  0.67928062  0.06047738    -0.72800
Al519      Al  0.61115277  0.63279305  0.09494371     1.49000
C520        C  0.60455053  0.72104176  0.05162006     0.94500
O521        O  0.55952224  0.76597933  0.12889946    -0.79000
O522        O  0.57159031  0.68800857  0.18571863    -0.72600
Al523      Al  0.60607218  0.73497411  0.12707071     1.90100
O524        O  0.51721924  0.70804457  0.11446189    -0.71600
O525        O  0.57432111  0.59723473  0.16041203    -0.71500
O526        O  0.52167707  0.62210175  0.08753945    -0.77100
O527        O  0.60826841  0.57690968  0.12343296    -0.75300
O528        O  0.58907385  0.67380115  0.11971870    -1.11500
O529        O  0.66278453  0.64324415  0.12940517    -0.70700
C530        C  0.67812238  0.68446056  0.13114395     1.00100
C531        C  0.52531058  0.75163064  0.12184548     0.96400
Al532      Al  0.54995420  0.65509374  0.13580414     1.55600
O533        O  0.59079774  0.74594080  0.07310975    -0.75300
C534        C  0.59406325  0.56679889  0.14940067     1.00600
C535        C  0.60104279  0.71525821  0.20029842     0.95500
O536        O  0.62241871  0.72869056  0.18106339    -0.80600
O537        O  0.90796536  0.22198819  0.12820580    -0.80100
C538        C  0.77969419  0.11484013  0.05665643     0.99300
O539        O  0.81387975  0.11868741  0.05621701    -0.69200
O540        O  0.86795011  0.17926794  0.06048782    -0.72800
Al541      Al  0.86119720  0.13278035  0.09495116     1.49000
C542        C  0.85458489  0.22101878  0.05161779     0.94500
O543        O  0.80956695  0.26596819  0.12890852    -0.79000
O544        O  0.82162669  0.18803137  0.18570567    -0.72600
Al545      Al  0.85611770  0.23496285  0.12706772     1.90100
O546        O  0.76726686  0.20803273  0.11441712    -0.71600
O547        O  0.82436561  0.09725875  0.16042710    -0.71500
O548        O  0.77172897  0.12207625  0.08754048    -0.77100
O549        O  0.85829612  0.07690301  0.12343848    -0.75300
O550        O  0.83911799  0.17379230  0.11971729    -1.11500
O551        O  0.91281945  0.14322523  0.12943072    -0.70700
C552        C  0.92816393  0.18443545  0.13116020     1.00100
C553        C  0.77535202  0.25161448  0.12182361     0.96400
Al554      Al  0.79999627  0.15509586  0.13579585     1.55600
O555        O  0.84082921  0.24591967  0.07310487    -0.75300
C556        C  0.84409640  0.06681147  0.14941408     1.00600
C557        C  0.85109551  0.21525391  0.20029375     0.95500
O558        O  0.87247687  0.22867401  0.18106088    -0.80600
O559        O  0.56725098  0.22198134  0.37921445    -0.80100
C560        C  0.69554532  0.11485356  0.45079159     0.99300
O561        O  0.66136189  0.11870364  0.45123553    -0.69200
O562        O  0.60728920  0.17927772  0.44696385    -0.72800
Al563      Al  0.61403755  0.13278777  0.41250788     1.49000
C564        C  0.62062663  0.22104283  0.45581288     0.94500
O565        O  0.66564907  0.26597511  0.37852488    -0.79000
O566        O  0.65361060  0.18802695  0.32173658    -0.72600
Al567      Al  0.61909793  0.23496419  0.38035863     1.90100
O568        O  0.70795999  0.20804967  0.39301211    -0.71600
O569        O  0.65085958  0.09725650  0.34702603    -0.71500
O570        O  0.70350534  0.12208810  0.41990511    -0.77100
O571        O  0.61693427  0.07690763  0.38402290    -0.75300
O572        O  0.63610759  0.17379808  0.38772619    -1.11500
O573        O  0.56240256  0.14321891  0.37804747    -0.70700
C574        C  0.54705676  0.18443148  0.37629774     1.00100
C575        C  0.69986582  0.25163060  0.38560258     0.96400
Al576      Al  0.67523262  0.15510043  0.37164784     1.55600
O577        O  0.63436868  0.24594608  0.43431638    -0.75300
C578        C  0.63112800  0.06681222  0.35804359     1.00600
C579        C  0.62414638  0.21525215  0.30714338     0.95500
O580        O  0.60275263  0.22866116  0.32636611    -0.80600
O581        O  0.85241008  0.26359405  0.32617508    -0.80100
C582        C  0.94562502  0.37687073  0.45070312     0.99300
O583        O  0.95363775  0.36948005  0.41986782    -0.69200
O584        O  0.95765789  0.28357767  0.39304158    -0.72800
Al585      Al  0.92523000  0.33663443  0.37158559     1.49000
C586        C  0.94952620  0.24005633  0.38552088     0.94500
O587        O  0.88365856  0.24601093  0.43407876    -0.79000
O588        O  0.81233160  0.34918726  0.37784897    -0.72600
Al589      Al  0.86870993  0.25712192  0.38013125     1.90100
O590        O  0.85704166  0.31306126  0.44674199    -0.71600
O591        O  0.86711612  0.41504086  0.38379428    -0.71500
O592        O  0.91139099  0.37330083  0.45105081    -0.77100
O593        O  0.90119787  0.39467335  0.34695603    -0.75300
O594        O  0.88597627  0.31819893  0.38759248    -1.11500
O595        O  0.90346472  0.30382584  0.32162608    -0.70700
C596        C  0.87380662  0.27693431  0.30695284     1.00100
C597        C  0.86981669  0.27103577  0.45544871     0.96400
Al598      Al  0.86402122  0.35938858  0.41231427     1.55600
O599        O  0.91525613  0.22577849  0.37833899    -0.75300
C600        C  0.88141036  0.42512459  0.35790385     1.00600
C601        C  0.79690857  0.30801255  0.37606136     0.95500
O602        O  0.81698451  0.27041202  0.37889030    -0.80600
O603        O  0.62281205  0.26355374  0.18124565    -0.80100
C604        C  0.52959559  0.37685264  0.05673131     0.99300
O605        O  0.52156900  0.36942107  0.08755435    -0.69200
O606        O  0.51756267  0.28353437  0.11440380    -0.72800
Al607      Al  0.54998282  0.33659915  0.13584542     1.49000
C608        C  0.52569706  0.24001672  0.12193133     0.94500
O609        O  0.59153136  0.24600554  0.07333767    -0.79000
O610        O  0.66288495  0.34914449  0.12959751    -0.72600
Al611      Al  0.60649865  0.25709178  0.12728892     1.90100
O612        O  0.61816483  0.31305672  0.06069217    -0.71600
O613        O  0.60812047  0.41501344  0.12366830    -0.71500
O614        O  0.56383658  0.37331635  0.05639828    -0.77100
O615        O  0.57399169  0.39465406  0.16046237    -0.75300
O616        O  0.58923745  0.31817313  0.11984092    -1.11500
O617        O  0.57177098  0.30380765  0.18581114    -0.70700
C618        C  0.60143205  0.27691703  0.20047916     1.00100
C619        C  0.60537599  0.27103889  0.05197317     0.96400
Al620      Al  0.61120081  0.35937221  0.09513319     1.55600
O621        O  0.55996414  0.22573978  0.12909974    -0.75300
C622        C  0.59379940  0.42510110  0.14953744     1.00600
C623        C  0.67830021  0.30796961  0.13135955     0.95500
O624        O  0.65821935  0.27037137  0.12851443    -0.80600
C625        C  0.97589254  0.38577420  0.48745761    -0.11500
C626        C  0.49933664  0.38576678  0.01997284    -0.13100
C627        C  0.60949959  0.25679934  0.23864816    -0.11500
C628        C  0.61632143  0.23562362  0.26908174    -0.13100
C629        C  0.60981710  0.25181653  0.01817450    -0.11500
C630        C  0.61689103  0.24020862  0.48992066    -0.13100
C631        C  0.72955433  0.28376159  0.38163989    -0.11500
C632        C  0.75782195  0.30173519  0.37657030    -0.13100
C633        C  0.50787402  0.19065543  0.37664785    -0.11500
C634        C  0.97933051  0.20808100  0.38156324    -0.13100
C635        C  0.85893867  0.23561256  0.23836195    -0.11500
C636        C  0.86576001  0.25679189  0.26879398    -0.13100
C637        C  0.86537147  0.25179816  0.48924303    -0.11500
C638        C  0.85830661  0.24017709  0.01750004    -0.13100
C639        C  0.96735135  0.19064261  0.13082577    -0.11500
C640        C  0.49589906  0.20804821  0.12590800    -0.13100
C641        C  0.74565380  0.28373401  0.12577405    -0.11500
C642        C  0.71738266  0.30169628  0.13084137    -0.13100
C643        C  0.74938876  0.10582740  0.01995511    -0.11500
C644        C  0.72585338  0.10583338  0.48749027    -0.13100
C645        C  0.59735215  0.47411874  0.16336314    -0.11500
C646        C  0.59752992  0.51778362  0.16326098    -0.13100
C647        C  0.87784537  0.47414014  0.34407389    -0.11500
C648        C  0.87765236  0.51780386  0.34417029    -0.13100
C649        C  0.97581307  0.60584346  0.48748702    -0.11500
C650        C  0.49934110  0.60584527  0.01995515    -0.13100
C651        C  0.62784021  0.97414122  0.34407274    -0.11500
C652        C  0.62766122  0.01780423  0.34417546    -0.13100
C653        C  0.61570409  0.75681169  0.26879285    -0.11500
C654        C  0.60887633  0.73562937  0.23836124    -0.13100
C655        C  0.60829157  0.74021195  0.01751322    -0.11500
C656        C  0.61536242  0.75183499  0.48925963    -0.13100
C657        C  0.72930980  0.70810168  0.38154959    -0.11500
C658        C  0.75785837  0.69069456  0.37663324    -0.13100
C659        C  0.97954334  0.78376601  0.38163897    -0.11500
C660        C  0.50780812  0.80174189  0.37656811    -0.13100
C661        C  0.84735862  0.97414169  0.16338037    -0.11500
C662        C  0.84755127  0.01780366  0.16328040    -0.13100
C663        C  0.86626164  0.73560299  0.26907408    -0.11500
C664        C  0.85943757  0.75677866  0.23864053    -0.13100
C665        C  0.86690573  0.74020404  0.48993941    -0.11500
C666        C  0.85983325  0.75183106  0.01819126    -0.13100
C667        C  0.96736232  0.80175573  0.13087145    -0.11500
C668        C  0.49562518  0.78376994  0.12580196    -0.13100
C669        C  0.71730344  0.69069260  0.13079040    -0.11500
C670        C  0.74584508  0.70811749  0.12587024    -0.13100
C671        C  0.74929200  0.88578522  0.01999343    -0.11500
C672        C  0.72585027  0.88577907  0.48747541    -0.13100
O673        O  0.87277351  0.76357979  0.68125326    -0.80100
C674        C  0.77956518  0.87688691  0.55674707     0.99300
O675        O  0.77156344  0.86952382  0.58759314    -0.69200
O676        O  0.76752882  0.78361387  0.61440674    -0.72800
Al677      Al  0.79997110  0.83665338  0.63586898     1.49000
C678        C  0.77565226  0.74008729  0.62191077     0.94500
O679        O  0.84152527  0.74604159  0.57334445    -0.79000
O680        O  0.91285445  0.84921023  0.62959456    -0.72600
Al681      Al  0.85647261  0.75713386  0.62729569     1.90100
O682        O  0.86816097  0.81308540  0.56070013    -0.71600
O683        O  0.85805961  0.91505905  0.62363566    -0.71500
O684        O  0.81379409  0.87329656  0.55638812    -0.77100
O685        O  0.82402518  0.89467031  0.66051329    -0.75300
O686        O  0.83921430  0.81821275  0.61984848    -1.11500
O687        O  0.82173366  0.80382559  0.68581903    -0.70700
C688        C  0.85138609  0.77692356  0.70048293     1.00100
C689        C  0.85537971  0.77106538  0.55198374     0.96400
Al690      Al  0.86116614  0.85940481  0.59512459     1.55600
O691        O  0.80991804  0.72579788  0.62907636    -0.75300
C692        C  0.84379096  0.92513078  0.64954679     1.00600
C693        C  0.92827670  0.80803434  0.63138085     0.95500
O694        O  0.90820016  0.77043204  0.62854632    -0.80600
O695        O  0.60238377  0.76358642  0.82618915    -0.80100
C696        C  0.69558990  0.87687274  0.95071419     0.99300
O697        O  0.70361047  0.86947887  0.91988183    -0.69200
O698        O  0.70763295  0.78358321  0.89304828    -0.72800
Al699      Al  0.67520564  0.83663623  0.87159141     1.49000
C700        C  0.69950463  0.74006381  0.88552013     0.94500
O701        O  0.63365580  0.74603855  0.93409834    -0.79000
O702        O  0.56231067  0.84918997  0.87782507    -0.72600
Al703      Al  0.61869400  0.75712582  0.88014566     1.90100
O704        O  0.60700063  0.81307525  0.94673368    -0.71600
O705        O  0.61709555  0.91505022  0.88379054    -0.71500
O706        O  0.66135223  0.87330997  0.95105248    -0.77100
O707        O  0.65117954  0.89467193  0.84695848    -0.75300
O708        O  0.63595299  0.81820480  0.88759546    -1.11500
O709        O  0.65343065  0.80382859  0.82162835    -0.70700
C710        C  0.62376863  0.77693978  0.80695845     1.00100
C711        C  0.61979993  0.77106273  0.95545848     0.96400
Al712      Al  0.61399031  0.85939826  0.91230636     1.55600
O713        O  0.66523703  0.72578038  0.87834404    -0.75300
C714        C  0.63139417  0.92512786  0.85790254     1.00600
C715        C  0.54689177  0.80801506  0.87605653     0.95500
O716        O  0.56697125  0.77041376  0.87890856    -0.80600
O717        O  0.81724867  0.72202071  0.87924188    -0.80100
C718        C  0.94551414  0.61485604  0.95078200     0.99300
O719        O  0.91132430  0.61868349  0.95121256    -0.69200
O720        O  0.85727320  0.67928517  0.94695971    -0.72800
Al721      Al  0.86400730  0.63279831  0.91248607     1.49000
C722        C  0.87063405  0.72103918  0.95582573     0.94500
O723        O  0.91564106  0.76598643  0.87852635    -0.79000
O724        O  0.90357355  0.68802439  0.82172900    -0.72600
Al725      Al  0.86909591  0.73498154  0.88037342     1.90100
O726        O  0.95794401  0.70805557  0.89299984    -0.71600
O727        O  0.90085729  0.59725356  0.84702923    -0.71500
O728        O  0.95348812  0.62211185  0.91990550    -0.77100
O729        O  0.86688880  0.57692357  0.88398781    -0.75300
O730        O  0.88609230  0.67380818  0.88772192    -1.11500
O731        O  0.81238099  0.64326113  0.87801712    -0.70700
C732        C  0.79704397  0.68447484  0.87629269     1.00100
C733        C  0.94985425  0.75163721  0.88559753     0.96400
Al734      Al  0.92521509  0.65510818  0.87164314     1.55600
O735        O  0.88438751  0.74593984  0.93433614    -0.75300
C736        C  0.88110717  0.56681746  0.85802886     1.00600
C737        C  0.87410907  0.71525452  0.80714465     0.95500
O738        O  0.85273571  0.72869086  0.82638151    -0.80600
O739        O  0.65792103  0.72200504  0.62821702    -0.80100
C740        C  0.52964408  0.61485787  0.55665760     0.99300
O741        O  0.56383101  0.61869305  0.55622006    -0.69200
O742        O  0.61789437  0.67928068  0.56047742    -0.72800
Al743      Al  0.61115281  0.63279304  0.59494371     1.49000
C744        C  0.60455050  0.72104193  0.55162010     0.94500
O745        O  0.55952231  0.76597948  0.62889952    -0.79000
O746        O  0.57159041  0.68800857  0.68571872    -0.72600
Al747      Al  0.60607220  0.73497415  0.62707074     1.90100
O748        O  0.51721935  0.70804465  0.61446204    -0.71600
O749        O  0.57432113  0.59723481  0.66041199    -0.71500
O750        O  0.52167714  0.62210181  0.58753953    -0.77100
O751        O  0.60826851  0.57690970  0.62343299    -0.75300
O752        O  0.58907389  0.67380114  0.61971873    -1.11500
O753        O  0.66278457  0.64324420  0.62940514    -0.70700
C754        C  0.67812250  0.68446067  0.63114393     1.00100
C755        C  0.52531072  0.75163082  0.62184560     0.96400
Al756      Al  0.54995424  0.65509383  0.63580420     1.55600
O757        O  0.59079776  0.74594087  0.57310980    -0.75300
C758        C  0.59406318  0.56679908  0.64940068     1.00600
C759        C  0.60104296  0.71525817  0.70029846     0.95500
O760        O  0.62241871  0.72869071  0.68106341    -0.80600
O761        O  0.90796541  0.22198816  0.62820589    -0.80100
C762        C  0.77969406  0.11484017  0.55665659     0.99300
O763        O  0.81387971  0.11868732  0.55621708    -0.69200
O764        O  0.86795015  0.17926792  0.56048783    -0.72800
Al765      Al  0.86119716  0.13278031  0.59495121     1.49000
C766        C  0.85458505  0.22101872  0.55161784     0.94500
O767        O  0.80956695  0.26596822  0.62890858    -0.79000
O768        O  0.82162661  0.18803126  0.68570572    -0.72600
Al769      Al  0.85611769  0.23496285  0.62706779     1.90100
O770        O  0.76726683  0.20803269  0.61441725    -0.71600
O771        O  0.82436553  0.09725879  0.66042708    -0.71500
O772        O  0.77172889  0.12207610  0.58754049    -0.77100
O773        O  0.85829614  0.07690303  0.62343855    -0.75300
O774        O  0.83911790  0.17379233  0.61971730    -1.11500
O775        O  0.91281941  0.14322520  0.62943073    -0.70700
C776        C  0.92816394  0.18443533  0.63116017     1.00100
C777        C  0.77535187  0.25161454  0.62182369     0.96400
Al778      Al  0.79999618  0.15509583  0.63579589     1.55600
O779        O  0.84082925  0.24591968  0.57310493    -0.75300
C780        C  0.84409632  0.06681138  0.64941417     1.00600
C781        C  0.85109534  0.21525368  0.70029386     0.95500
O782        O  0.87247683  0.22867384  0.68106092    -0.80600
O783        O  0.56725091  0.22198143  0.87921447    -0.80100
C784        C  0.69554541  0.11485360  0.95079161     0.99300
O785        O  0.66136187  0.11870371  0.95123549    -0.69200
O786        O  0.60728922  0.17927776  0.94696382    -0.72800
Al787      Al  0.61403756  0.13278782  0.91250788     1.49000
C788        C  0.62062663  0.22104290  0.95581289     0.94500
O789        O  0.66564902  0.26597518  0.87852481    -0.79000
O790        O  0.65361061  0.18802692  0.82173667    -0.72600
Al791      Al  0.61909786  0.23496423  0.88035856     1.90100
O792        O  0.70795991  0.20804968  0.89301208    -0.71600
O793        O  0.65085956  0.09725646  0.84702605    -0.71500
O794        O  0.70350534  0.12208818  0.91990509    -0.77100
O795        O  0.61693424  0.07690767  0.88402290    -0.75300
O796        O  0.63610760  0.17379809  0.88772621    -1.11500
O797        O  0.56240251  0.14321898  0.87804755    -0.70700
C798        C  0.54705673  0.18443169  0.87629775     1.00100
C799        C  0.69986578  0.25163061  0.88560270     0.96400
Al800      Al  0.67523261  0.15510041  0.87164783     1.55600
O801        O  0.63436858  0.24594620  0.93431624    -0.75300
C802        C  0.63112806  0.06681227  0.85804357     1.00600
C803        C  0.62414634  0.21525234  0.80714328     0.95500
O804        O  0.60275259  0.22866122  0.82636604    -0.80600
O805        O  0.85241006  0.26359403  0.82617498    -0.80100
C806        C  0.94562500  0.37687074  0.95070304     0.99300
O807        O  0.95363779  0.36948012  0.91986774    -0.69200
O808        O  0.95765779  0.28357774  0.89304139    -0.72800
Al809      Al  0.92522997  0.33663447  0.87158551     1.49000
C810        C  0.94952620  0.24005626  0.88552080     0.94500
O811        O  0.88365850  0.24601082  0.93407863    -0.79000
O812        O  0.81233163  0.34918713  0.87784892    -0.72600
Al813      Al  0.86870995  0.25712187  0.88013117     1.90100
O814        O  0.85704178  0.31306125  0.94674196    -0.71600
O815        O  0.86711606  0.41504079  0.88379418    -0.71500
O816        O  0.91139103  0.37330070  0.95105078    -0.77100
O817        O  0.90119785  0.39467333  0.84695594    -0.75300
O818        O  0.88597631  0.31819888  0.88759246    -1.11500
O819        O  0.90346468  0.30382589  0.82162605    -0.70700
C820        C  0.87380658  0.27693442  0.80695270     1.00100
C821        C  0.86981668  0.27103571  0.95544860     0.96400
Al822      Al  0.86402123  0.35938853  0.91231424     1.55600
O823        O  0.91525615  0.22577841  0.87833892    -0.75300
C824        C  0.88141040  0.42512456  0.85790378     1.00600
C825        C  0.79690865  0.30801233  0.87606136     0.95500
O826        O  0.81698448  0.27041192  0.87889022    -0.80600
O827        O  0.62281212  0.26355374  0.68124571    -0.80100
C828        C  0.52959551  0.37685253  0.55673139     0.99300
O829        O  0.52156896  0.36942107  0.58755439    -0.69200
O830        O  0.51756267  0.28353433  0.61440380    -0.72800
Al831      Al  0.54998276  0.33659910  0.63584545     1.49000
C832        C  0.52569685  0.24001667  0.62193124     0.94500
O833        O  0.59153133  0.24600551  0.57333768    -0.79000
O834        O  0.66288496  0.34914456  0.62959754    -0.72600
Al835      Al  0.60649866  0.25709178  0.62728895     1.90100
O836        O  0.61816482  0.31305670  0.56069221    -0.71600
O837        O  0.60812046  0.41501344  0.62366837    -0.71500
O838        O  0.56383661  0.37331637  0.55639835    -0.77100
O839        O  0.57399165  0.39465393  0.66046240    -0.75300
O840        O  0.58923748  0.31817320  0.61984096    -1.11500
O841        O  0.57177092  0.30380757  0.68581113    -0.70700
C842        C  0.60143211  0.27691705  0.70047932     1.00100
C843        C  0.60537602  0.27103883  0.55197331     0.96400
Al844      Al  0.61120083  0.35937228  0.59513322     1.55600
O845        O  0.55996418  0.22573974  0.62909973    -0.75300
C846        C  0.59379941  0.42510088  0.64953748     1.00600
C847        C  0.67830036  0.30796957  0.63135959     0.95500
O848        O  0.65821937  0.27037135  0.62851442    -0.80600
C849        C  0.97589250  0.38577425  0.98745746    -0.11500
C850        C  0.49933663  0.38576672  0.51997288    -0.13100
C851        C  0.60949948  0.25679941  0.73864806    -0.11500
C852        C  0.61632145  0.23562345  0.76908178    -0.13100
C853        C  0.60981709  0.25181656  0.51817449    -0.11500
C854        C  0.61689108  0.24020866  0.98992052    -0.13100
C855        C  0.72955432  0.28376147  0.88163990    -0.11500
C856        C  0.75782194  0.30173516  0.87657035    -0.13100
C857        C  0.50787399  0.19065567  0.87664791    -0.11500
C858        C  0.97933053  0.20808098  0.88156333    -0.13100
C859        C  0.85893852  0.23561248  0.73836184    -0.11500
C860        C  0.86575999  0.25679205  0.76879396    -0.13100
C861        C  0.86537134  0.25179802  0.98924293    -0.11500
C862        C  0.85830667  0.24017705  0.51750012    -0.13100
C863        C  0.96735134  0.19064245  0.63082570    -0.11500
C864        C  0.49589918  0.20804816  0.62590789    -0.13100
C865        C  0.74565390  0.28373393  0.62577410    -0.11500
C866        C  0.71738254  0.30169639  0.63084143    -0.13100
C867        C  0.74938871  0.10582737  0.51995506    -0.11500
C868        C  0.72585337  0.10583350  0.98749019    -0.13100
C869        C  0.59735220  0.47411884  0.66336317    -0.11500
C870        C  0.59752997  0.51778345  0.66326098    -0.13100
C871        C  0.87784541  0.47414026  0.84407388    -0.11500
C872        C  0.87765232  0.51780381  0.84417034    -0.13100
C873        C  0.97581306  0.60584361  0.98748709    -0.11500
C874        C  0.49934117  0.60584542  0.51995513    -0.13100
C875        C  0.62784017  0.97414130  0.84407274    -0.11500
C876        C  0.62766125  0.01780416  0.84417543    -0.13100
C877        C  0.61570408  0.75681169  0.76879281    -0.11500
C878        C  0.60887644  0.73562948  0.73836130    -0.13100
C879        C  0.60829146  0.74021196  0.51751313    -0.11500
C880        C  0.61536250  0.75183498  0.98925968    -0.13100
C881        C  0.72930984  0.70810171  0.88154960    -0.11500
C882        C  0.75785839  0.69069452  0.87663327    -0.13100
C883        C  0.97954348  0.78376593  0.88163905    -0.11500
C884        C  0.50780815  0.80174204  0.87656818    -0.13100
C885        C  0.84735866  0.97414161  0.66338039    -0.11500
C886        C  0.84755132  0.01780383  0.66328043    -0.13100
C887        C  0.86626177  0.73560298  0.76907407    -0.11500
C888        C  0.85943766  0.75677865  0.73864056    -0.13100
C889        C  0.86690577  0.74020408  0.98993932    -0.11500
C890        C  0.85983330  0.75183105  0.51819117    -0.13100
C891        C  0.96736239  0.80175574  0.63087147    -0.11500
C892        C  0.49562521  0.78376997  0.62580201    -0.13100
C893        C  0.71730337  0.69069256  0.63079044    -0.11500
C894        C  0.74584512  0.70811775  0.62587022    -0.13100
C895        C  0.74929202  0.88578535  0.51999339    -0.11500
C896        C  0.72585017  0.88577900  0.98747529    -0.13100
loop_ 
_geom_bond_atom_site_label_1 
_geom_bond_atom_site_label_2 
_geom_bond_distance 
_geom_bond_site_symmetry_2 
_ccdc_geom_bond_type 
O1           C16   1.263       .  A
O1           Al9   1.881       .  S
C2           O12   1.255       .  A
C2            O3   1.272       .  A
C2          C223   1.460       .  S
O3           Al5   1.962       .  S
O4            C6   1.250       .  A
O4           Al5   1.890       .  S
Al5          O13   1.911       .  S
Al5          O15   1.967       .  S
Al5          O14   1.787       .  S
C6           O19   1.254       .  A
C6          C222   1.444       .  S
O7           C17   1.266       .  A
O7           Al9   1.899       .  S
O8           C21   1.264       .  A
O8          Al18   1.919       .  S
Al9          O22   1.906       .  S
Al9          O19   1.925       .  S
Al9          O14   1.794       .  S
O10          C17   1.256       .  A
O10         Al18   1.874       .  S
O11          C20   1.253       .  A
O11         Al18   1.886       .  S
O12         Al18   1.886       .  S
O13          C20   1.257       .  A
O14         Al18   1.798       .  S
O15          C16   1.279       .  A
C16         C216   1.445       .  S
C17         C218   1.405       .  S
C20         C213   1.440       .  S
C21          O22   1.257       .  A
C21         C219   1.441       .  S
O23          C38   1.263       .  A
O23         Al31   1.881       .  S
C24          O34   1.255       .  A
C24          O25   1.272       .  A
C24         C224   1.460       .  S
O25         Al27   1.962       .  S
O26          C28   1.250       .  A
O26         Al27   1.890       .  S
Al27         O35   1.911       .  S
Al27         O37   1.967       .  S
Al27         O36   1.787       .  S
C28          O41   1.254       .  A
C28         C209   1.444       .  S
O29          C39   1.266       .  A
O29         Al31   1.899       .  S
O30          C43   1.264       .  A
O30         Al40   1.919       .  S
Al31         O44   1.906       .  S
Al31         O41   1.925       .  S
Al31         O36   1.794       .  S
O32          C39   1.256       .  A
O32         Al40   1.874       .  S
O33          C42   1.253       .  A
O33         Al40   1.886       .  S
O34         Al40   1.886       .  S
O35          C42   1.257       .  A
O36         Al40   1.798       .  S
O37          C38   1.279       .  A
C38         C205   1.445       .  S
C39         C208   1.405       .  S
C42         C203   1.440       .  S
C43          O44   1.257       .  A
C43         C212   1.441       .  S
O45          C60   1.258       .  A
O45         Al53   1.910       .  S
C46          O56   1.272       .  A
C46          O47   1.255       .  A
C46         C201   1.460       .  S
O47         Al49   1.886       .  S
O48          C50   1.256       .  A
O48         Al49   1.875       .  S
Al49         O57   1.889       .  S
Al49         O59   1.919       .  S
Al49         O58   1.798       .  S
C50          O63   1.266       .  A
C50         C217   1.405       .  S
O51          C61   1.253       .  A
O51         Al53   1.921       .  S
O52          C65   1.279       .  A
O52         Al62   1.967       .  S
Al53         O66   1.882       .  S
Al53         O63   1.898       .  S
Al53         O58   1.794       .  S
O54          C61   1.251       .  A
O54         Al62   1.892       .  S
O55          C64   1.256       .  A
O55         Al62   1.911       .  S
O56         Al62   1.962       .  S
O57          C64   1.253       .  A
O58         Al62   1.786       .  S
O59          C60   1.263       .  A
C60         C210   1.442       .  S
C61         C211   1.444       .  S
C64         C200   1.441       .  S
C65          O66   1.264       .  A
C65         C215   1.445       .  S
O67          C82   1.258       .  A
O67         Al75   1.910       .  S
C68          O78   1.272       .  A
C68          O69   1.255       .  A
C68         C202   1.460   1_455  S
O69         Al71   1.886       .  S
O70          C72   1.256       .  A
O70         Al71   1.875       .  S
Al71         O79   1.889       .  S
Al71         O81   1.919       .  S
Al71         O80   1.798       .  S
C72          O85   1.266       .  A
C72         C207   1.405       .  S
O73          C83   1.253       .  A
O73         Al75   1.921       .  S
O74          C87   1.279       .  A
O74         Al84   1.967       .  S
Al75         O88   1.882       .  S
Al75         O85   1.898       .  S
Al75         O80   1.794       .  S
O76          C83   1.251       .  A
O76         Al84   1.892       .  S
O77          C86   1.256       .  A
O77         Al84   1.911       .  S
O78         Al84   1.962       .  S
O79          C86   1.253       .  A
O80         Al84   1.786       .  S
O81          C82   1.263       .  A
C82         C221   1.442       .  S
C83         C220   1.444   1_455  S
C86         C198   1.441       .  S
C87          O88   1.264       .  A
C87         C206   1.445       .  S
O89         C104   1.258       .  A
O89         Al97   1.910       .  S
C90         O100   1.272       .  A
C90          O91   1.255       .  A
C90         C195   1.460       .  S
O91         Al93   1.886       .  S
O92          C94   1.256       .  A
O92         Al93   1.875       .  S
Al93        O101   1.889       .  S
Al93        O103   1.919       .  S
Al93        O102   1.798       .  S
C94         O107   1.266       .  A
C94         C190   1.405       .  S
O95         C105   1.253       .  A
O95         Al97   1.921       .  S
O96         C109   1.279       .  A
O96        Al106   1.967       .  S
Al97        O110   1.882       .  S
Al97        O107   1.898       .  S
Al97        O102   1.794       .  S
O98         C105   1.251       .  A
O98        Al106   1.892       .  S
O99         C108   1.256       .  A
O99        Al106   1.911       .  S
O100       Al106   1.962       .  S
O101        C108   1.253       .  A
O102       Al106   1.786       .  S
O103        C104   1.263       .  A
C104        C191   1.442       .  S
C105        C193   1.444       .  S
C108        C214   1.440       .  S
C109        O110   1.264       .  A
C109        C187   1.445       .  S
O111        C126   1.258       .  A
O111       Al119   1.910       .  S
C112        O122   1.272       .  A
C112        O113   1.255       .  A
C112        C196   1.460       .  S
O113       Al115   1.886       .  S
O114        C116   1.256       .  A
O114       Al115   1.875       .  S
Al115       O123   1.889       .  S
Al115       O125   1.919       .  S
Al115       O124   1.798       .  S
C116        O129   1.266       .  A
C116        C182   1.405       .  S
O117        C127   1.253       .  A
O117       Al119   1.921       .  S
O118        C131   1.279       .  A
O118       Al128   1.967       .  S
Al119       O132   1.882       .  S
Al119       O129   1.898       .  S
Al119       O124   1.794       .  S
O120        C127   1.251       .  A
O120       Al128   1.892       .  S
O121        C130   1.256       .  A
O121       Al128   1.911       .  S
O122       Al128   1.962       .  S
O123        C130   1.253       .  A
O124       Al128   1.786       .  S
O125        C126   1.263       .  A
C126        C185   1.442       .  S
C127        C183   1.444       .  S
C130        C204   1.440       .  S
C131        O132   1.264       .  A
C131        C180   1.445       .  S
O133        C148   1.263       .  A
O133       Al141   1.881       .  S
C134        O144   1.255       .  A
C134        O135   1.272       .  A
C134        C177   1.460       .  S
O135       Al137   1.961       .  S
O136        C138   1.250       .  A
O136       Al137   1.890       .  S
Al137       O145   1.912       .  S
Al137       O147   1.967       .  S
Al137       O146   1.787       .  S
C138        O151   1.254       .  A
C138        C186   1.444       .  S
O139        C149   1.266       .  A
O139       Al141   1.899       .  S
O140        C153   1.264       .  A
O140       Al150   1.919       .  S
Al141       O154   1.906       .  S
Al141       O151   1.925       .  S
Al141       O146   1.794       .  S
O142        C149   1.256       .  A
O142       Al150   1.874       .  S
O143        C152   1.253       .  A
O143       Al150   1.886       .  S
O144       Al150   1.886       .  S
O145        C152   1.257       .  A
O146       Al150   1.798       .  S
O147        C148   1.279       .  A
C148        C188   1.445       .  S
C149        C189   1.405       .  S
C152        C199   1.440       .  S
C153        O154   1.257       .  A
C153        C184   1.441       .  S
O155        C170   1.263       .  A
O155       Al163   1.881       .  S
C156        O166   1.255       .  A
C156        O157   1.272       .  A
C156        C178   1.460   1_455  S
O157       Al159   1.961       .  S
O158        C160   1.250       .  A
O158       Al159   1.890       .  S
Al159       O167   1.912       .  S
Al159       O169   1.967       .  S
Al159       O168   1.787       .  S
C160        O173   1.254       .  A
C160        C192   1.444   1_455  S
O161        C171   1.266       .  A
O161       Al163   1.899       .  S
O162        C175   1.263       .  A
O162       Al172   1.919       .  S
Al163       O176   1.906       .  S
Al163       O173   1.925       .  S
Al163       O168   1.795       .  S
O164        C171   1.256       .  A
O164       Al172   1.874       .  S
O165        C174   1.253       .  A
O165       Al172   1.886       .  S
O166       Al172   1.886       .  S
O167        C174   1.257       .  A
O168       Al172   1.798       .  S
O169        C170   1.279       .  A
C170        C179   1.445       .  S
C171        C181   1.405       .  S
C174        C197   1.440       .  S
C175        O176   1.257       .  A
C175        C194   1.441       .  S
C177        C850   1.221       .  T
C178        C849   1.221   1_554  T
C179        C180   1.213       .  T
C181        C406   1.190   1_554  T
C182        C405   1.190       .  T
C183        C184   1.211       .  T
C185        C634   1.212   1_455  T
C186        C633   1.212       .  T
C187        C188   1.213       .  T
C189        C414   1.190       .  T
C190        C413   1.190   1_554  T
C191        C640   1.212       .  T
C192        C639   1.212       .  T
C193        C194   1.211       .  T
C195        C420   1.221   1_554  T
C196        C419   1.221       .  T
C197        C198   1.209       .  T
C199        C200   1.209       .  T
C201        C874   1.221       .  T
C202        C873   1.221   1_554  T
C203        C204   1.209   1_565  T
C205        C206   1.213       .  T
C207        C432   1.190   1_554  T
C208        C431   1.190       .  T
C209        C210   1.212       .  T
C211        C660   1.211       .  T
C212        C659   1.211   1_455  T
C213        C214   1.209   1_565  T
C215        C216   1.213       .  T
C217        C442   1.190       .  T
C218        C441   1.190   1_554  T
C219        C668   1.211       .  T
C220        C667   1.211       .  T
C221        C222   1.212       .  T
C223        C448   1.222   1_554  T
C224        C447   1.222       .  T
O225        C240   1.263       .  A
O225       Al233   1.881       .  S
C226        O236   1.255       .  A
C226        O227   1.272       .  A
C226        C447   1.460       .  S
O227       Al229   1.962       .  S
O228        C230   1.250       .  A
O228       Al229   1.890       .  S
Al229       O237   1.911       .  S
Al229       O239   1.967       .  S
Al229       O238   1.787       .  S
C230        O243   1.254       .  A
C230        C446   1.444       .  S
O231        C241   1.266       .  A
O231       Al233   1.899       .  S
O232        C245   1.264       .  A
O232       Al242   1.919       .  S
Al233       O246   1.906       .  S
Al233       O243   1.925       .  S
Al233       O238   1.794       .  S
O234        C241   1.256       .  A
O234       Al242   1.874       .  S
O235        C244   1.253       .  A
O235       Al242   1.886       .  S
O236       Al242   1.886       .  S
O237        C244   1.257       .  A
O238       Al242   1.798       .  S
O239        C240   1.279       .  A
C240        C440   1.445       .  S
C241        C442   1.405       .  S
C244        C437   1.440       .  S
C245        O246   1.257       .  A
C245        C443   1.441       .  S
O247        C262   1.263       .  A
O247       Al255   1.881       .  S
C248        O258   1.255       .  A
C248        O249   1.272       .  A
C248        C448   1.460       .  S
O249       Al251   1.962       .  S
O250        C252   1.250       .  A
O250       Al251   1.890       .  S
Al251       O259   1.911       .  S
Al251       O261   1.967       .  S
Al251       O260   1.787       .  S
C252        O265   1.254       .  A
C252        C433   1.444       .  S
O253        C263   1.266       .  A
O253       Al255   1.899       .  S
O254        C267   1.264       .  A
O254       Al264   1.919       .  S
Al255       O268   1.906       .  S
Al255       O265   1.925       .  S
Al255       O260   1.794       .  S
O256        C263   1.256       .  A
O256       Al264   1.874       .  S
O257        C266   1.253       .  A
O257       Al264   1.886       .  S
O258       Al264   1.886       .  S
O259        C266   1.257       .  A
O260       Al264   1.798       .  S
O261        C262   1.279       .  A
C262        C429   1.445       .  S
C263        C432   1.405       .  S
C266        C427   1.440       .  S
C267        O268   1.257       .  A
C267        C436   1.441       .  S
O269        C284   1.258       .  A
O269       Al277   1.910       .  S
C270        O280   1.272       .  A
C270        O271   1.255       .  A
C270        C425   1.460       .  S
O271       Al273   1.886       .  S
O272        C274   1.256       .  A
O272       Al273   1.875       .  S
Al273       O281   1.889       .  S
Al273       O283   1.919       .  S
Al273       O282   1.798       .  S
C274        O287   1.266       .  A
C274        C441   1.405       .  S
O275        C285   1.253       .  A
O275       Al277   1.921       .  S
O276        C289   1.279       .  A
O276       Al286   1.967       .  S
Al277       O290   1.882       .  S
Al277       O287   1.898       .  S
Al277       O282   1.794       .  S
O278        C285   1.251       .  A
O278       Al286   1.892       .  S
O279        C288   1.256       .  A
O279       Al286   1.911       .  S
O280       Al286   1.962       .  S
O281        C288   1.253       .  A
O282       Al286   1.786       .  S
O283        C284   1.263       .  A
C284        C434   1.442       .  S
C285        C435   1.444       .  S
C288        C424   1.441       .  S
C289        O290   1.264       .  A
C289        C439   1.445       .  S
O291        C306   1.258       .  A
O291       Al299   1.910       .  S
C292        O302   1.272       .  A
C292        O293   1.255       .  A
C292        C426   1.460   1_455  S
O293       Al295   1.886       .  S
O294        C296   1.256       .  A
O294       Al295   1.875       .  S
Al295       O303   1.889       .  S
Al295       O305   1.919       .  S
Al295       O304   1.798       .  S
C296        O309   1.266       .  A
C296        C431   1.405       .  S
O297        C307   1.253       .  A
O297       Al299   1.921       .  S
O298        C311   1.279       .  A
O298       Al308   1.967       .  S
Al299       O312   1.882       .  S
Al299       O309   1.898       .  S
Al299       O304   1.794       .  S
O300        C307   1.251       .  A
O300       Al308   1.892       .  S
O301        C310   1.256       .  A
O301       Al308   1.911       .  S
O302       Al308   1.962       .  S
O303        C310   1.253       .  A
O304       Al308   1.786       .  S
O305        C306   1.263       .  A
C306        C445   1.442       .  S
C307        C444   1.444   1_455  S
C310        C422   1.441       .  S
C311        O312   1.264       .  A
C311        C430   1.445       .  S
O313        C328   1.258       .  A
O313       Al321   1.910       .  S
C314        O324   1.272       .  A
C314        O315   1.255       .  A
C314        C419   1.460       .  S
O315       Al317   1.886       .  S
O316        C318   1.256       .  A
O316       Al317   1.875       .  S
Al317       O325   1.889       .  S
Al317       O327   1.919       .  S
Al317       O326   1.798       .  S
C318        O331   1.266       .  A
C318        C414   1.405       .  S
O319        C329   1.253       .  A
O319       Al321   1.921       .  S
O320        C333   1.279       .  A
O320       Al330   1.967       .  S
Al321       O334   1.882       .  S
Al321       O331   1.898       .  S
Al321       O326   1.794       .  S
O322        C329   1.251       .  A
O322       Al330   1.892       .  S
O323        C332   1.256       .  A
O323       Al330   1.911       .  S
O324       Al330   1.962       .  S
O325        C332   1.253       .  A
O326       Al330   1.786       .  S
O327        C328   1.263       .  A
C328        C415   1.442       .  S
C329        C417   1.444       .  S
C332        C438   1.440       .  S
C333        O334   1.264       .  A
C333        C411   1.445       .  S
O335        C350   1.258       .  A
O335       Al343   1.910       .  S
C336        O346   1.272       .  A
C336        O337   1.255       .  A
C336        C420   1.460       .  S
O337       Al339   1.886       .  S
O338        C340   1.256       .  A
O338       Al339   1.875       .  S
Al339       O347   1.889       .  S
Al339       O349   1.919       .  S
Al339       O348   1.798       .  S
C340        O353   1.266       .  A
C340        C406   1.405       .  S
O341        C351   1.253       .  A
O341       Al343   1.921       .  S
O342        C355   1.279       .  A
O342       Al352   1.967       .  S
Al343       O356   1.882       .  S
Al343       O353   1.898       .  S
Al343       O348   1.794       .  S
O344        C351   1.251       .  A
O344       Al352   1.892       .  S
O345        C354   1.256       .  A
O345       Al352   1.911       .  S
O346       Al352   1.962       .  S
O347        C354   1.253       .  A
O348       Al352   1.786       .  S
O349        C350   1.263       .  A
C350        C409   1.442       .  S
C351        C407   1.444       .  S
C354        C428   1.440       .  S
C355        O356   1.264       .  A
C355        C404   1.445       .  S
O357        C372   1.263       .  A
O357       Al365   1.881       .  S
C358        O368   1.255       .  A
C358        O359   1.272       .  A
C358        C401   1.460       .  S
O359       Al361   1.961       .  S
O360        C362   1.250       .  A
O360       Al361   1.890       .  S
Al361       O369   1.912       .  S
Al361       O371   1.967       .  S
Al361       O370   1.787       .  S
C362        O375   1.254       .  A
C362        C410   1.444       .  S
O363        C373   1.266       .  A
O363       Al365   1.899       .  S
O364        C377   1.264       .  A
O364       Al374   1.919       .  S
Al365       O378   1.906       .  S
Al365       O375   1.925       .  S
Al365       O370   1.795       .  S
O366        C373   1.256       .  A
O366       Al374   1.874       .  S
O367        C376   1.253       .  A
O367       Al374   1.886       .  S
O368       Al374   1.886       .  S
O369        C376   1.257       .  A
O370       Al374   1.798       .  S
O371        C372   1.279       .  A
C372        C412   1.445       .  S
C373        C413   1.405       .  S
C376        C423   1.440       .  S
C377        O378   1.257       .  A
C377        C408   1.441       .  S
O379        C394   1.263       .  A
O379       Al387   1.881       .  S
C380        O390   1.255       .  A
C380        O381   1.272       .  A
C380        C402   1.460   1_455  S
O381       Al383   1.961       .  S
O382        C384   1.250       .  A
O382       Al383   1.890       .  S
Al383       O391   1.912       .  S
Al383       O393   1.967       .  S
Al383       O392   1.787       .  S
C384        O397   1.254       .  A
C384        C416   1.444   1_455  S
O385        C395   1.266       .  A
O385       Al387   1.899       .  S
O386        C399   1.263       .  A
O386       Al396   1.919       .  S
Al387       O400   1.906       .  S
Al387       O397   1.925       .  S
Al387       O392   1.795       .  S
O388        C395   1.256       .  A
O388       Al396   1.874       .  S
O389        C398   1.253       .  A
O389       Al396   1.886       .  S
O390       Al396   1.886       .  S
O391        C398   1.257       .  A
O392       Al396   1.798       .  S
O393        C394   1.279       .  A
C394        C403   1.445       .  S
C395        C405   1.405       .  S
C398        C421   1.440       .  S
C399        O400   1.257       .  A
C399        C418   1.441       .  S
C401        C626   1.221   1_556  T
C402        C625   1.221       .  T
C403        C404   1.213       .  T
C407        C408   1.211       .  T
C409        C858   1.212   1_455  T
C410        C857   1.212       .  T
C411        C412   1.213       .  T
C415        C864   1.212       .  T
C416        C863   1.212       .  T
C417        C418   1.211       .  T
C421        C422   1.209       .  T
C423        C424   1.209       .  T
C425        C650   1.221   1_556  T
C426        C649   1.221       .  T
C427        C428   1.209   1_565  T
C429        C430   1.213       .  T
C433        C434   1.212       .  T
C435        C884   1.211       .  T
C436        C883   1.211   1_455  T
C437        C438   1.209   1_565  T
C439        C440   1.213       .  T
C443        C892   1.211       .  T
C444        C891   1.211       .  T
C445        C446   1.212       .  T
O449        C464   1.263       .  A
O449       Al457   1.881       .  S
C450        O460   1.255       .  A
C450        O451   1.272       .  A
C450        C671   1.460       .  S
O451       Al453   1.962       .  S
O452        C454   1.250       .  A
O452       Al453   1.890       .  S
Al453       O461   1.911       .  S
Al453       O463   1.967       .  S
Al453       O462   1.787       .  S
C454        O467   1.254       .  A
C454        C670   1.444       .  S
O455        C465   1.266       .  A
O455       Al457   1.899       .  S
O456        C469   1.264       .  A
O456       Al466   1.919       .  S
Al457       O470   1.906       .  S
Al457       O467   1.925       .  S
Al457       O462   1.794       .  S
O458        C465   1.256       .  A
O458       Al466   1.874       .  S
O459        C468   1.253       .  A
O459       Al466   1.886       .  S
O460       Al466   1.886       .  S
O461        C468   1.257       .  A
O462       Al466   1.798       .  S
O463        C464   1.279       .  A
C464        C664   1.445       .  S
C465        C666   1.405       .  S
C468        C661   1.440       .  S
C469        O470   1.257       .  A
C469        C667   1.441       .  S
O471        C486   1.263       .  A
O471       Al479   1.881       .  S
C472        O482   1.255       .  A
C472        O473   1.272       .  A
C472        C672   1.460       .  S
O473       Al475   1.962       .  S
O474        C476   1.250       .  A
O474       Al475   1.890       .  S
Al475       O483   1.911       .  S
Al475       O485   1.967       .  S
Al475       O484   1.787       .  S
C476        O489   1.254       .  A
C476        C657   1.444       .  S
O477        C487   1.266       .  A
O477       Al479   1.899       .  S
O478        C491   1.264       .  A
O478       Al488   1.919       .  S
Al479       O492   1.906       .  S
Al479       O489   1.925       .  S
Al479       O484   1.794       .  S
O480        C487   1.256       .  A
O480       Al488   1.874       .  S
O481        C490   1.253       .  A
O481       Al488   1.886       .  S
O482       Al488   1.886       .  S
O483        C490   1.257       .  A
O484       Al488   1.798       .  S
O485        C486   1.279       .  A
C486        C653   1.445       .  S
C487        C656   1.405       .  S
C490        C651   1.440       .  S
C491        O492   1.257       .  A
C491        C660   1.441       .  S
O493        C508   1.258       .  A
O493       Al501   1.910       .  S
C494        O504   1.272       .  A
C494        O495   1.255       .  A
C494        C649   1.460       .  S
O495       Al497   1.886       .  S
O496        C498   1.256       .  A
O496       Al497   1.875       .  S
Al497       O505   1.889       .  S
Al497       O507   1.919       .  S
Al497       O506   1.798       .  S
C498        O511   1.266       .  A
C498        C665   1.405       .  S
O499        C509   1.253       .  A
O499       Al501   1.921       .  S
O500        C513   1.279       .  A
O500       Al510   1.967       .  S
Al501       O514   1.882       .  S
Al501       O511   1.898       .  S
Al501       O506   1.794       .  S
O502        C509   1.251       .  A
O502       Al510   1.892       .  S
O503        C512   1.256       .  A
O503       Al510   1.911       .  S
O504       Al510   1.962       .  S
O505        C512   1.253       .  A
O506       Al510   1.786       .  S
O507        C508   1.263       .  A
C508        C658   1.442       .  S
C509        C659   1.444       .  S
C512        C648   1.441       .  S
C513        O514   1.264       .  A
C513        C663   1.445       .  S
O515        C530   1.258       .  A
O515       Al523   1.910       .  S
C516        O526   1.272       .  A
C516        O517   1.255       .  A
C516        C650   1.460       .  S
O517       Al519   1.886       .  S
O518        C520   1.256       .  A
O518       Al519   1.875       .  S
Al519       O527   1.889       .  S
Al519       O529   1.919       .  S
Al519       O528   1.798       .  S
C520        O533   1.266       .  A
C520        C655   1.405       .  S
O521        C531   1.253       .  A
O521       Al523   1.921       .  S
O522        C535   1.279       .  A
O522       Al532   1.967       .  S
Al523       O536   1.882       .  S
Al523       O533   1.898       .  S
Al523       O528   1.794       .  S
O524        C531   1.251       .  A
O524       Al532   1.892       .  S
O525        C534   1.256       .  A
O525       Al532   1.911       .  S
O526       Al532   1.962       .  S
O527        C534   1.253       .  A
O528       Al532   1.786       .  S
O529        C530   1.263       .  A
C530        C669   1.442       .  S
C531        C668   1.444       .  S
C534        C646   1.441       .  S
C535        O536   1.264       .  A
C535        C654   1.445       .  S
O537        C552   1.258       .  A
O537       Al545   1.910       .  S
C538        O548   1.272       .  A
C538        O539   1.255       .  A
C538        C643   1.460       .  S
O539       Al541   1.886       .  S
O540        C542   1.256       .  A
O540       Al541   1.875       .  S
Al541       O549   1.889       .  S
Al541       O551   1.919       .  S
Al541       O550   1.798       .  S
C542        O555   1.266       .  A
C542        C638   1.405       .  S
O543        C553   1.253       .  A
O543       Al545   1.921       .  S
O544        C557   1.279       .  A
O544       Al554   1.967       .  S
Al545       O558   1.882       .  S
Al545       O555   1.898       .  S
Al545       O550   1.794       .  S
O546        C553   1.251       .  A
O546       Al554   1.892       .  S
O547        C556   1.256       .  A
O547       Al554   1.911       .  S
O548       Al554   1.962       .  S
O549        C556   1.253       .  A
O550       Al554   1.786       .  S
O551        C552   1.263       .  A
C552        C639   1.442       .  S
C553        C641   1.444       .  S
C556        C662   1.440       .  S
C557        O558   1.264       .  A
C557        C635   1.445       .  S
O559        C574   1.258       .  A
O559       Al567   1.910       .  S
C560        O570   1.272       .  A
C560        O561   1.255       .  A
C560        C644   1.460       .  S
O561       Al563   1.886       .  S
O562        C564   1.256       .  A
O562       Al563   1.875       .  S
Al563       O571   1.889       .  S
Al563       O573   1.919       .  S
Al563       O572   1.798       .  S
C564        O577   1.266       .  A
C564        C630   1.405       .  S
O565        C575   1.253       .  A
O565       Al567   1.921       .  S
O566        C579   1.279       .  A
O566       Al576   1.967       .  S
Al567       O580   1.882       .  S
Al567       O577   1.898       .  S
Al567       O572   1.794       .  S
O568        C575   1.251       .  A
O568       Al576   1.892       .  S
O569        C578   1.256       .  A
O569       Al576   1.911       .  S
O570       Al576   1.962       .  S
O571        C578   1.253       .  A
O572       Al576   1.786       .  S
O573        C574   1.263       .  A
C574        C633   1.442       .  S
C575        C631   1.444       .  S
C578        C652   1.440       .  S
C579        O580   1.264       .  A
C579        C628   1.445       .  S
O581        C596   1.263       .  A
O581       Al589   1.881       .  S
C582        O592   1.255       .  A
C582        O583   1.272       .  A
C582        C625   1.460       .  S
O583       Al585   1.961       .  S
O584        C586   1.250       .  A
O584       Al585   1.890       .  S
Al585       O593   1.912       .  S
Al585       O595   1.967       .  S
Al585       O594   1.787       .  S
C586        O599   1.254       .  A
C586        C634   1.444       .  S
O587        C597   1.266       .  A
O587       Al589   1.899       .  S
O588        C601   1.264       .  A
O588       Al598   1.919       .  S
Al589       O602   1.906       .  S
Al589       O599   1.925       .  S
Al589       O594   1.795       .  S
O590        C597   1.256       .  A
O590       Al598   1.874       .  S
O591        C600   1.253       .  A
O591       Al598   1.886       .  S
O592       Al598   1.886       .  S
O593        C600   1.257       .  A
O594       Al598   1.798       .  S
O595        C596   1.279       .  A
C596        C636   1.445       .  S
C597        C637   1.405       .  S
C600        C647   1.440       .  S
C601        O602   1.257       .  A
C601        C632   1.441       .  S
O603        C618   1.263       .  A
O603       Al611   1.881       .  S
C604        O614   1.255       .  A
C604        O605   1.272       .  A
C604        C626   1.460       .  S
O605       Al607   1.961       .  S
O606        C608   1.250       .  A
O606       Al607   1.890       .  S
Al607       O615   1.912       .  S
Al607       O617   1.967       .  S
Al607       O616   1.787       .  S
C608        O621   1.254       .  A
C608        C640   1.444       .  S
O609        C619   1.266       .  A
O609       Al611   1.899       .  S
O610        C623   1.263       .  A
O610       Al620   1.919       .  S
Al611       O624   1.906       .  S
Al611       O621   1.925       .  S
Al611       O616   1.795       .  S
O612        C619   1.256       .  A
O612       Al620   1.874       .  S
O613        C622   1.253       .  A
O613       Al620   1.886       .  S
O614       Al620   1.886       .  S
O615        C622   1.257       .  A
O616       Al620   1.798       .  S
O617        C618   1.279       .  A
C618        C627   1.445       .  S
C619        C629   1.405       .  S
C622        C645   1.440       .  S
C623        O624   1.257       .  A
C623        C642   1.441       .  S
C627        C628   1.213       .  T
C629        C854   1.190   1_554  T
C630        C853   1.190       .  T
C631        C632   1.211       .  T
C635        C636   1.213       .  T
C637        C862   1.190       .  T
C638        C861   1.190   1_554  T
C641        C642   1.211       .  T
C643        C868   1.221   1_554  T
C644        C867   1.221       .  T
C645        C646   1.209       .  T
C647        C648   1.209       .  T
C651        C652   1.209   1_565  T
C653        C654   1.213       .  T
C655        C880   1.190   1_554  T
C656        C879   1.190       .  T
C657        C658   1.212       .  T
C661        C662   1.209   1_565  T
C663        C664   1.213       .  T
C665        C890   1.190       .  T
C666        C889   1.190   1_554  T
C669        C670   1.212       .  T
C671        C896   1.222   1_554  T
C672        C895   1.222       .  T
O673        C688   1.263       .  A
O673       Al681   1.881       .  S
C674        O684   1.255       .  A
C674        O675   1.272       .  A
C674        C895   1.460       .  S
O675       Al677   1.962       .  S
O676        C678   1.250       .  A
O676       Al677   1.890       .  S
Al677       O685   1.911       .  S
Al677       O687   1.967       .  S
Al677       O686   1.787       .  S
C678        O691   1.254       .  A
C678        C894   1.444       .  S
O679        C689   1.266       .  A
O679       Al681   1.899       .  S
O680        C693   1.264       .  A
O680       Al690   1.919       .  S
Al681       O694   1.906       .  S
Al681       O691   1.925       .  S
Al681       O686   1.794       .  S
O682        C689   1.256       .  A
O682       Al690   1.874       .  S
O683        C692   1.253       .  A
O683       Al690   1.886       .  S
O684       Al690   1.886       .  S
O685        C692   1.257       .  A
O686       Al690   1.798       .  S
O687        C688   1.279       .  A
C688        C888   1.445       .  S
C689        C890   1.405       .  S
C692        C885   1.440       .  S
C693        O694   1.257       .  A
C693        C891   1.441       .  S
O695        C710   1.263       .  A
O695       Al703   1.881       .  S
C696        O706   1.255       .  A
C696        O697   1.272       .  A
C696        C896   1.460       .  S
O697       Al699   1.962       .  S
O698        C700   1.250       .  A
O698       Al699   1.890       .  S
Al699       O707   1.911       .  S
Al699       O709   1.967       .  S
Al699       O708   1.787       .  S
C700        O713   1.254       .  A
C700        C881   1.444       .  S
O701        C711   1.266       .  A
O701       Al703   1.899       .  S
O702        C715   1.264       .  A
O702       Al712   1.919       .  S
Al703       O716   1.906       .  S
Al703       O713   1.925       .  S
Al703       O708   1.794       .  S
O704        C711   1.256       .  A
O704       Al712   1.874       .  S
O705        C714   1.253       .  A
O705       Al712   1.886       .  S
O706       Al712   1.886       .  S
O707        C714   1.257       .  A
O708       Al712   1.798       .  S
O709        C710   1.279       .  A
C710        C877   1.445       .  S
C711        C880   1.405       .  S
C714        C875   1.440       .  S
C715        O716   1.257       .  A
C715        C884   1.441       .  S
O717        C732   1.258       .  A
O717       Al725   1.910       .  S
C718        O728   1.272       .  A
C718        O719   1.255       .  A
C718        C873   1.460       .  S
O719       Al721   1.886       .  S
O720        C722   1.256       .  A
O720       Al721   1.875       .  S
Al721       O729   1.889       .  S
Al721       O731   1.919       .  S
Al721       O730   1.798       .  S
C722        O735   1.266       .  A
C722        C889   1.405       .  S
O723        C733   1.253       .  A
O723       Al725   1.921       .  S
O724        C737   1.279       .  A
O724       Al734   1.967       .  S
Al725       O738   1.882       .  S
Al725       O735   1.898       .  S
Al725       O730   1.794       .  S
O726        C733   1.251       .  A
O726       Al734   1.892       .  S
O727        C736   1.256       .  A
O727       Al734   1.911       .  S
O728       Al734   1.962       .  S
O729        C736   1.253       .  A
O730       Al734   1.786       .  S
O731        C732   1.263       .  A
C732        C882   1.442       .  S
C733        C883   1.444       .  S
C736        C872   1.441       .  S
C737        O738   1.264       .  A
C737        C887   1.445       .  S
O739        C754   1.258       .  A
O739       Al747   1.910       .  S
C740        O750   1.272       .  A
C740        O741   1.255       .  A
C740        C874   1.460       .  S
O741       Al743   1.886       .  S
O742        C744   1.256       .  A
O742       Al743   1.875       .  S
Al743       O751   1.889       .  S
Al743       O753   1.919       .  S
Al743       O752   1.798       .  S
C744        O757   1.266       .  A
C744        C879   1.405       .  S
O745        C755   1.253       .  A
O745       Al747   1.921       .  S
O746        C759   1.279       .  A
O746       Al756   1.967       .  S
Al747       O760   1.882       .  S
Al747       O757   1.898       .  S
Al747       O752   1.794       .  S
O748        C755   1.251       .  A
O748       Al756   1.892       .  S
O749        C758   1.256       .  A
O749       Al756   1.911       .  S
O750       Al756   1.962       .  S
O751        C758   1.253       .  A
O752       Al756   1.786       .  S
O753        C754   1.263       .  A
C754        C893   1.442       .  S
C755        C892   1.444       .  S
C758        C870   1.441       .  S
C759        O760   1.264       .  A
C759        C878   1.445       .  S
O761        C776   1.258       .  A
O761       Al769   1.910       .  S
C762        O772   1.272       .  A
C762        O763   1.255       .  A
C762        C867   1.460       .  S
O763       Al765   1.886       .  S
O764        C766   1.256       .  A
O764       Al765   1.875       .  S
Al765       O773   1.889       .  S
Al765       O775   1.919       .  S
Al765       O774   1.798       .  S
C766        O779   1.266       .  A
C766        C862   1.405       .  S
O767        C777   1.253       .  A
O767       Al769   1.921       .  S
O768        C781   1.279       .  A
O768       Al778   1.967       .  S
Al769       O782   1.882       .  S
Al769       O779   1.898       .  S
Al769       O774   1.794       .  S
O770        C777   1.251       .  A
O770       Al778   1.892       .  S
O771        C780   1.256       .  A
O771       Al778   1.911       .  S
O772       Al778   1.962       .  S
O773        C780   1.253       .  A
O774       Al778   1.786       .  S
O775        C776   1.263       .  A
C776        C863   1.442       .  S
C777        C865   1.444       .  S
C780        C886   1.440       .  S
C781        O782   1.264       .  A
C781        C859   1.445       .  S
O783        C798   1.258       .  A
O783       Al791   1.910       .  S
C784        O794   1.272       .  A
C784        O785   1.255       .  A
C784        C868   1.460       .  S
O785       Al787   1.886       .  S
O786        C788   1.256       .  A
O786       Al787   1.875       .  S
Al787       O795   1.889       .  S
Al787       O797   1.919       .  S
Al787       O796   1.798       .  S
C788        O801   1.266       .  A
C788        C854   1.405       .  S
O789        C799   1.253       .  A
O789       Al791   1.921       .  S
O790        C803   1.279       .  A
O790       Al800   1.967       .  S
Al791       O804   1.882       .  S
Al791       O801   1.898       .  S
Al791       O796   1.794       .  S
O792        C799   1.251       .  A
O792       Al800   1.892       .  S
O793        C802   1.256       .  A
O793       Al800   1.911       .  S
O794       Al800   1.962       .  S
O795        C802   1.254       .  A
O796       Al800   1.786       .  S
O797        C798   1.263       .  A
C798        C857   1.442       .  S
C799        C855   1.444       .  S
C802        C876   1.440       .  S
C803        O804   1.264       .  A
C803        C852   1.445       .  S
O805        C820   1.263       .  A
O805       Al813   1.881       .  S
C806        O816   1.255       .  A
C806        O807   1.272       .  A
C806        C849   1.460       .  S
O807       Al809   1.961       .  S
O808        C810   1.250       .  A
O808       Al809   1.890       .  S
Al809       O817   1.912       .  S
Al809       O819   1.967       .  S
Al809       O818   1.787       .  S
C810        O823   1.254       .  A
C810        C858   1.444       .  S
O811        C821   1.266       .  A
O811       Al813   1.899       .  S
O812        C825   1.264       .  A
O812       Al822   1.919       .  S
Al813       O826   1.906       .  S
Al813       O823   1.925       .  S
Al813       O818   1.795       .  S
O814        C821   1.256       .  A
O814       Al822   1.874       .  S
O815        C824   1.253       .  A
O815       Al822   1.886       .  S
O816       Al822   1.886       .  S
O817        C824   1.257       .  A
O818       Al822   1.798       .  S
O819        C820   1.279       .  A
C820        C860   1.445       .  S
C821        C861   1.405       .  S
C824        C871   1.440       .  S
C825        O826   1.257       .  A
C825        C856   1.441       .  S
O827        C842   1.263       .  A
O827       Al835   1.881       .  S
C828        O838   1.255       .  A
C828        O829   1.272       .  A
C828        C850   1.460       .  S
O829       Al831   1.961       .  S
O830        C832   1.250       .  A
O830       Al831   1.890       .  S
Al831       O839   1.912       .  S
Al831       O841   1.967       .  S
Al831       O840   1.787       .  S
C832        O845   1.254       .  A
C832        C864   1.444       .  S
O833        C843   1.266       .  A
O833       Al835   1.899       .  S
O834        C847   1.263       .  A
O834       Al844   1.919       .  S
Al835       O848   1.906       .  S
Al835       O845   1.925       .  S
Al835       O840   1.795       .  S
O836        C843   1.256       .  A
O836       Al844   1.874       .  S
O837        C846   1.253       .  A
O837       Al844   1.886       .  S
O838       Al844   1.886       .  S
O839        C846   1.257       .  A
O840       Al844   1.798       .  S
O841        C842   1.279       .  A
C842        C851   1.445       .  S
C843        C853   1.405       .  S
C846        C869   1.440       .  S
C847        O848   1.257       .  A
C847        C866   1.441       .  S
C851        C852   1.213       .  T
C855        C856   1.211       .  T
C859        C860   1.213       .  T
C865        C866   1.211       .  T
C869        C870   1.209       .  T
C871        C872   1.209       .  T
C875        C876   1.209   1_565  T
C877        C878   1.213       .  T
C881        C882   1.212       .  T
C885        C886   1.209   1_565  T
C887        C888   1.213       .  T
C893        C894   1.212       .  T
