geometry optimzed in LAMMPS
_audit_creation_date              2020-12-01 
_audit_creation_method            'lammps2cif' 
_symmetry_space_group_name_H-M    'P1' 
_symmetry_Int_Tables_number       1 
_symmetry_cell_setting            triclinic 
loop_ 
_symmetry_equiv_pos_as_xyz 
  x,y,z 
_cell_length_a                    31.22890846 
_cell_length_b                    27.346869093860704 
_cell_length_c                    65.44085203393932 
_cell_angle_alpha                 90.12712834816878 
_cell_angle_beta                  90.08979907513643 
_cell_angle_gamma                 90.26387671743402 
loop_ 
_atom_site_label 
_atom_site_type_symbol 
_atom_site_fract_x 
_atom_site_fract_y 
_atom_site_fract_z 
_atom_site_charge 
O1          O  0.88628899  0.16187804  0.47712637    -0.82700
C2          C  0.03595904  0.15512835  0.43000532     0.96700
O3          O  0.00313561  0.12892772  0.42640245    -0.71800
O4          O  0.98951622  0.08980584  0.46192775    -0.75400
Al5        Al  0.95299923  0.12085920  0.44361784     1.49000
C6          C  0.97951509  0.08452991  0.48036999     0.91900
O7          O  0.99730281  0.20717054  0.49074461    -0.81600
O8          O  0.92878241  0.26352206  0.44623702    -0.75200
Al9        Al  0.94272557  0.18393567  0.48225910     1.90100
O10         O  0.00494972  0.26013659  0.46600328    -0.74200
O11         O  0.95636249  0.20933669  0.41620785    -0.74100
O12         O  0.03181713  0.19638818  0.43843049    -0.79700
O13         O  0.91520460  0.14734170  0.42439589    -0.77900
O14         O  0.95832374  0.17770420  0.45634995    -1.14100
O15         O  0.90333073  0.09854111  0.45859362    -0.73300
C16         C  0.87862726  0.11879499  0.47133933     0.97400
C17         C  0.01258048  0.24684292  0.48415577     0.93800
Al18       Al  0.97915775  0.22833577  0.44271831     1.55600
O19         O  0.96046136  0.11851592  0.48998329    -0.77900
C20         C  0.92411180  0.18226547  0.41268293     0.98000
C21         C  0.91281487  0.27472313  0.46326815     0.92900
O22         O  0.92088684  0.24993445  0.47919653    -0.83200
O23         O  0.85876408  0.17225697  0.27443943    -0.82700
C24         C  0.70962045  0.16306248  0.32332587     0.96700
O25         O  0.74187561  0.13541189  0.32547294    -0.71800
O26         O  0.75469679  0.10035733  0.28882271    -0.75400
Al27       Al  0.79178659  0.12922789  0.30783937     1.49000
C28         C  0.76313263  0.09866436  0.27001102     0.91900
O29         O  0.74798774  0.22166822  0.26267272    -0.81600
O30         O  0.81706425  0.27287159  0.30777115    -0.75200
Al31       Al  0.80229729  0.19652690  0.27041615     1.90100
O32         O  0.73988324  0.27000344  0.28889578    -0.74200
O33         O  0.79002125  0.21540530  0.33694963    -0.74100
O34         O  0.71411795  0.20458179  0.31531994    -0.79700
O35         O  0.83028588  0.15365078  0.32772556    -0.77900
O36         O  0.78700856  0.18746871  0.29630622    -1.14100
O37         O  0.84088376  0.10799157  0.29224491    -0.73300
C38         C  0.86571825  0.12855058  0.27962752     0.97400
C39         C  0.73133114  0.25910132  0.27061106     0.93800
Al40       Al  0.76678096  0.23666706  0.31108020     1.55600
O41         O  0.78298322  0.13335065  0.26134316    -0.77900
C42         C  0.82142883  0.18739066  0.34013542     0.98000
C43         C  0.83170088  0.28645001  0.29075145     0.92900
O44         O  0.82484745  0.26142918  0.27474995    -0.83200
O45         O  0.57740738  0.75174128  0.02148402    -0.82700
C46         C  0.46210951  0.84920330  0.07011993     0.96700
O47         O  0.46743115  0.80740973  0.06251050    -0.71800
O48         O  0.49274434  0.74302624  0.03574211    -0.75400
Al49       Al  0.52021767  0.77652340  0.05806329     1.49000
C50         C  0.48336687  0.75454708  0.01759477     0.91900
O51         O  0.53637967  0.88047846  0.00809864    -0.81600
O52         O  0.59277061  0.90562512  0.03944576    -0.75200
Al53       Al  0.55505076  0.81695014  0.01735568     1.90100
O54         O  0.50647660  0.91206903  0.03542422    -0.74200
O55         O  0.58149114  0.86282757  0.07515506    -0.74100
O56         O  0.49371849  0.87805091  0.07207085    -0.79700
O57         O  0.54423286  0.79830000  0.08390220    -0.77900
O58         O  0.53975631  0.82602449  0.04331514    -1.14100
O59         O  0.57060382  0.74123881  0.05463597    -0.73300
C60         C  0.58564083  0.72817134  0.03767138     0.97400
C61         C  0.51524678  0.91419403  0.01669327     0.93800
Al62       Al  0.54352431  0.88472211  0.05472637     1.55600
O63         O  0.50042546  0.79182988  0.00962763    -0.77900
C64         C  0.57376718  0.82895540  0.08767048     0.98000
C65         C  0.61837498  0.88496584  0.02726728     0.92900
O66         O  0.61147096  0.84134256  0.02173320    -0.83200
O67         O  0.67323765  0.74978600  0.22925072    -0.82700
C68         C  0.78716127  0.84169553  0.17812282     0.96700
O69         O  0.78067032  0.79988187  0.18553492    -0.71800
O70         O  0.75567892  0.73708550  0.21339640    -0.75400
Al71       Al  0.72713393  0.77120049  0.19133195     1.49000
C72         C  0.76748951  0.75064113  0.23106210     0.91900
O73         O  0.71812850  0.87707836  0.24106084    -0.81600
O74         O  0.66049599  0.90365838  0.21064412    -0.75200
Al75       Al  0.69754728  0.81440106  0.23235678     1.90100
O76         O  0.74752736  0.90790212  0.21360834    -0.74200
O77         O  0.66895165  0.86077641  0.17465969    -0.74100
O78         O  0.75674943  0.87201136  0.17688064    -0.79700
O79         O  0.70162478  0.79305016  0.16592504    -0.77900
O80         O  0.71084737  0.82222206  0.20614718    -1.14100
O81         O  0.67562490  0.73808454  0.19607239    -0.73300
C82         C  0.66216571  0.72601575  0.21347657     0.97400
C83         C  0.73878344  0.91086112  0.23233062     0.93800
Al84       Al  0.70845924  0.88106984  0.19475331     1.55600
O85         O  0.75212591  0.78885061  0.23892098    -0.77900
C86         C  0.67470344  0.82637207  0.16216249     0.98000
C87         C  0.63512061  0.88354986  0.22315917     0.92900
O88         O  0.64162915  0.83999206  0.22879005    -0.83200
O89         O  0.36190252  0.17920121  0.77525524    -0.82700
C90         C  0.21038366  0.17173957  0.82167891     0.96700
O91         O  0.24288074  0.14527234  0.82494216    -0.71800
O92         O  0.25792951  0.10581389  0.78954967    -0.75400
Al93       Al  0.29356237  0.13781425  0.80825087     1.49000
C94         C  0.26704148  0.10099336  0.77094932     0.91900
O95         O  0.25101089  0.22111379  0.76025388    -0.81600
O96         O  0.31684009  0.28266914  0.80459243    -0.75200
Al97       Al  0.30541155  0.19979426  0.76940469     1.90100
O98         O  0.24079133  0.27427873  0.78480241    -0.74200
O99         O  0.28991969  0.22880280  0.83501656    -0.74100
O100        O  0.21466399  0.21262071  0.81305015    -0.79700
O101        O  0.32980125  0.16470560  0.82832189    -0.77900
O102        O  0.28879724  0.19444720  0.79529298    -1.14100
O103        O  0.34413545  0.11613490  0.79382398    -0.73300
C104        C  0.36958594  0.13646599  0.78138815     0.97400
C105        C  0.23398590  0.25984917  0.76669567     0.93800
Al106      Al  0.26709891  0.24542343  0.80839822     1.55600
O107        O  0.28820836  0.13393731  0.76171853    -0.77900
C108        C  0.31958191  0.19961277  0.83986947     0.98000
C109        C  0.33150222  0.29438007  0.78733464     0.92900
O110        O  0.32596806  0.26664503  0.77197707    -0.83200
O111        O  0.39274002  0.17527647  0.97756179    -0.82700
C112        C  0.53791848  0.17053969  0.92686083     0.96700
O113        O  0.50534994  0.14337035  0.92440990    -0.71800
O114        O  0.49672973  0.10502206  0.96080074    -0.75400
Al115      Al  0.45749067  0.13465435  0.94294417     1.49000
C116        C  0.48951393  0.10151882  0.97965692     0.91900
O117        O  0.50420787  0.22219658  0.98844367    -0.81600
O118        O  0.43141490  0.27805336  0.94585805    -0.75200
Al119      Al  0.44936864  0.19864468  0.98141486     1.90100
O120        O  0.51049004  0.27482958  0.96347523    -0.74200
O121        O  0.45505992  0.22361186  0.91538302    -0.74100
O122        O  0.53371018  0.21186460  0.93518036    -0.79700
O123        O  0.41732537  0.15948396  0.92426363    -0.77900
O124        O  0.46268859  0.19217875  0.95522540    -1.14100
O125        O  0.40962037  0.11170489  0.95908177    -0.73300
C126        C  0.38497046  0.13209466  0.97183624     0.97400
C127        C  0.52072358  0.26038159  0.98117111     0.93800
Al128      Al  0.48138234  0.24303335  0.94101101     1.55600
O129        O  0.46888285  0.13442688  0.98907412    -0.77900
C130        C  0.42375763  0.19480947  0.91229912     0.98000
C131        C  0.41699196  0.28892379  0.96321010     0.92900
O132        O  0.42670375  0.26421652  0.97889583    -0.83200
O133        O  0.16246690  0.76192078  0.72897374    -0.82700
C134        C  0.28156169  0.86262796  0.67944641     0.96700
O135        O  0.27299127  0.81757836  0.67801275    -0.71800
O136        O  0.27995761  0.76717922  0.71168401    -0.75400
Al137      Al  0.23431669  0.77654023  0.69293080     1.49000
C138        C  0.27656827  0.76133367  0.73067475     0.91900
O139        O  0.23222607  0.87235484  0.74189938    -0.81600
O140        O  0.13854424  0.88137686  0.70272062    -0.75200
Al141      Al  0.19795891  0.81743808  0.73383396     1.90100
O142        O  0.21150089  0.92183449  0.71742749    -0.74200
O143        O  0.17990926  0.85501620  0.66969531    -0.74100
O144        O  0.25434459  0.89165544  0.68661495    -0.79700
O145        O  0.19210767  0.77666150  0.67194466    -0.77900
O146        O  0.20976775  0.82518718  0.70722749    -1.14100
O147        O  0.20165477  0.72634366  0.70540168    -0.73300
C148        C  0.17214169  0.72464592  0.71853775     0.97400
C149        C  0.22837594  0.91487019  0.73458856     0.93800
Al150      Al  0.19736893  0.88208507  0.69499911     1.55600
O151        O  0.24464830  0.77700567  0.74018787    -0.77900
C152        C  0.17458831  0.81217405  0.66316106     0.98000
C153        C  0.12637469  0.87863168  0.72105402     0.92900
O154        O  0.14837748  0.85619481  0.73406355    -0.83200
O155        O  0.08802381  0.75330394  0.52355248    -0.82700
C156        C  0.96741996  0.84802201  0.57429066     0.96700
O157        O  0.97651189  0.80323959  0.57468907    -0.71800
O158        O  0.96923210  0.75410411  0.54033816    -0.75400
Al159      Al  0.01524384  0.76424435  0.55940863     1.49000
C160        C  0.97340050  0.74751206  0.52135248     0.91900
O161        O  0.01394904  0.86038918  0.51159818    -0.81600
O162        O  0.10981163  0.87267087  0.54989446    -0.75200
Al163      Al  0.05068311  0.80724159  0.51889172     1.90100
O164        O  0.03524526  0.90995852  0.53605646    -0.74200
O165        O  0.06866443  0.84407262  0.58296701    -0.74100
O166        O  0.99372563  0.87854422  0.56714841    -0.79700
O167        O  0.05759315  0.76525646  0.58059414    -0.77900
O168        O  0.03908286  0.81394019  0.54554183    -1.14100
O169        O  0.04836532  0.71584136  0.54659285    -0.73300
C170        C  0.07822209  0.71540973  0.53365913     0.97400
C171        C  0.01587376  0.90264731  0.51951883     0.93800
Al172      Al  0.05079755  0.87091228  0.55805657     1.55600
O173        O  0.00561167  0.76416525  0.51229691    -0.77900
C174        C  0.07357117  0.80161319  0.58973923     0.98000
C175        C  0.12144278  0.87089841  0.53142156     0.92900
O176        O  0.09893809  0.84884774  0.51841235    -0.83200
O177        O  0.17442848  0.01486125  0.02238906    -0.82700
C178        C  0.28906104  0.91764343  0.07121753     0.96700
O179        O  0.28351628  0.95967607  0.06391271    -0.71800
O180        O  0.25856667  0.02411233  0.03677356    -0.75400
Al181      Al  0.23075013  0.99050789  0.05924392     1.49000
C182        C  0.26835308  0.01074256  0.01882044     0.91900
O183        O  0.21477529  0.88526314  0.00936984    -0.81600
O184        O  0.15815271  0.86105643  0.04039230    -0.75200
Al185      Al  0.19659539  0.94922079  0.01853603     1.90100
O186        O  0.24475377  0.85414034  0.03654861    -0.74200
O187        O  0.17010063  0.90327931  0.07616033    -0.74100
O188        O  0.25756704  0.88865576  0.07312385    -0.79700
O189        O  0.20644472  0.96871684  0.08510621    -0.77900
O190        O  0.21149837  0.94055991  0.04450198    -1.14100
O191        O  0.18024780  0.02566693  0.05554916    -0.73300
C192        C  0.16539868  0.03853307  0.03850283     0.97400
C193        C  0.23510944  0.85096154  0.01793143     0.93800
Al194      Al  0.20774051  0.88176616  0.05577691     1.55600
O195        O  0.25137471  0.97306531  0.01113906    -0.77900
C196        C  0.17829929  0.93642159  0.08893193     0.98000
C197        C  0.13283039  0.88230079  0.02819651     0.92900
O198        O  0.14023929  0.92580685  0.02285831    -0.83200
O199        O  0.07301309  0.00904696  0.22732482    -0.82700
C200        C  0.96031588  0.90910286  0.17759015     0.96700
O201        O  0.96503884  0.95100975  0.18524322    -0.71800
O202        O  0.98809755  0.01744520  0.21215535    -0.75400
Al203      Al  0.01719086  0.98308360  0.19026328     1.49000
C204        C  0.97872731  0.00635575  0.23040239     0.91900
O205        O  0.02997142  0.88102480  0.24061221    -0.81600
O206        O  0.08814155  0.85424836  0.21066113    -0.75200
Al207      Al  0.05001911  0.94401191  0.23146969     1.90100
O208        O  0.00163262  0.84827809  0.21300862    -0.74200
O209        O  0.08023232  0.89702207  0.17466789    -0.74100
O210        O  0.99220929  0.88097759  0.17590089    -0.79700
O211        O  0.04318195  0.96067071  0.16498584    -0.77900
O212        O  0.03603503  0.93418506  0.20543989    -1.14100
O213        O  0.06708612  0.01945791  0.19418937    -0.73300
C214        C  0.08071813  0.03357710  0.21131857     0.97400
C215        C  0.00905612  0.84699908  0.23190331     0.93800
Al216      Al  0.04042295  0.87508846  0.19432300     1.55600
O217        O  0.99541481  0.96918821  0.23847310    -0.77900
C218        C  0.07364265  0.93095748  0.16203939     0.98000
C219        C  0.11308950  0.87556286  0.22304698     0.92900
O220        O  0.10636468  0.91954324  0.22795808    -0.83200
O221        O  0.89027290  0.58563682  0.27342341    -0.82700
C222        C  0.03705209  0.59689365  0.32362980     0.96700
O223        O  0.00435865  0.62381275  0.32580884    -0.71800
O224        O  0.99300287  0.65904874  0.28928341    -0.75400
Al225      Al  0.95529190  0.62953939  0.30763895     1.49000
C226        C  0.98578416  0.66102467  0.27038698     0.91900
O227        O  0.00199910  0.53933542  0.26265094    -0.81600
O228        O  0.93189856  0.48606995  0.30684635    -0.75200
Al229      Al  0.94707180  0.56274851  0.26984211     1.90100
O230        O  0.00952162  0.48912132  0.28835006    -0.74200
O231        O  0.95673250  0.54336935  0.33642182    -0.74100
O232        O  0.03339693  0.55550321  0.31532206    -0.79700
O233        O  0.91616207  0.60452037  0.32695976    -0.77900
O234        O  0.96116799  0.57156305  0.29589613    -1.14100
O235        O  0.90682048  0.65003350  0.29155587    -0.73300
C236        C  0.88268181  0.62912512  0.27864816     0.97400
C237        C  0.01882658  0.50188734  0.27033102     0.93800
Al238      Al  0.98145245  0.52249310  0.31061026     1.55600
O239        O  0.96606062  0.62667208  0.26125907    -0.77900
C240        C  0.92471695  0.57083477  0.33937641     0.98000
C241        C  0.91631369  0.47349312  0.28989175     0.92900
O242        O  0.92469023  0.49723195  0.27372353    -0.83200
O243        O  0.85811595  0.57809137  0.47725973    -0.82700
C244        C  0.70943083  0.58417881  0.42834409     0.96700
O245        O  0.74160154  0.61211040  0.42628377    -0.71800
O246        O  0.75236031  0.64794470  0.46325029    -0.75400
Al247      Al  0.79038202  0.61994869  0.44427945     1.49000
C248        C  0.76104010  0.65033538  0.48207822     0.91900
O249        O  0.74806721  0.52879789  0.48959155    -0.81600
O250        O  0.81684292  0.47584124  0.44501810    -0.75200
Al251      Al  0.80200044  0.55350052  0.48174030     1.90100
O252        O  0.73900999  0.47857690  0.46383278    -0.74200
O253        O  0.79108669  0.53291087  0.41537410    -0.74100
O254        O  0.71383153  0.54277395  0.43643856    -0.79700
O255        O  0.82941435  0.59682806  0.42464251    -0.77900
O256        O  0.78637973  0.56155247  0.45585871    -1.14100
O257        O  0.83865313  0.64261089  0.45999384    -0.73300
C258        C  0.86393072  0.62222529  0.47236133     0.97400
C259        C  0.73106076  0.49100420  0.48208655     0.93800
Al260      Al  0.76662393  0.51156077  0.44126293     1.55600
O261        O  0.78247721  0.61677171  0.49057207    -0.77900
C262        C  0.82159256  0.56275000  0.41218670     0.98000
C263        C  0.83095134  0.46250808  0.46215928     0.92900
O264        O  0.82441833  0.48824837  0.47796674    -0.83200
O265        O  0.57870539  0.01814606  0.72815892    -0.82700
C266        C  0.45790423  0.92283651  0.68101392     0.96700
O267        O  0.46521196  0.96484410  0.68815606    -0.71800
O268        O  0.49361738  0.02928692  0.71485076    -0.75400
Al269      Al  0.51936140  0.99388309  0.69227465     1.49000
C270        C  0.48556556  0.01790053  0.73323214     0.91900
O271        O  0.53528256  0.89094661  0.74277748    -0.81600
O272        O  0.58740803  0.86219084  0.71146231    -0.75200
Al273      Al  0.55507308  0.95360264  0.73277974     1.90100
O274        O  0.50052493  0.86073935  0.71643765    -0.74200
O275        O  0.57599003  0.90295627  0.67557523    -0.74100
O276        O  0.48821442  0.89258381  0.67932485    -0.79700
O277        O  0.54248779  0.97005784  0.66654823    -0.77900
O278        O  0.53764739  0.94415491  0.70717327    -1.14100
O279        O  0.57090203  0.02760590  0.69512417    -0.73300
C280        C  0.58609337  0.04179108  0.71190869     0.97400
C281        C  0.51175640  0.85807146  0.73486927     0.93800
Al282      Al  0.53812094  0.88456349  0.69643250     1.55600
O283        O  0.50200111  0.98016596  0.74097381    -0.77900
C284        C  0.56998204  0.93707042  0.66306109     0.98000
C285        C  0.61504340  0.88317728  0.72266882     0.92900
O286        O  0.61024045  0.92755653  0.72749577    -0.83200
O287        O  0.67507904  0.00013785  0.52558098    -0.82700
C288        C  0.79314056  0.90927951  0.57500308     0.96700
O289        O  0.78625209  0.95016752  0.56695361    -0.71800
O290        O  0.75949018  0.01157864  0.53913967    -0.75400
Al291      Al  0.73298387  0.97889908  0.56217058     1.49000
C292        C  0.76851557  0.99737152  0.52120629     0.91900
O293        O  0.71656993  0.87075998  0.51359546    -0.81600
O294        O  0.66249364  0.84663134  0.54521627    -0.75200
Al295      Al  0.69795896  0.93457114  0.52228659     1.90100
O296        O  0.74882131  0.84091415  0.54051450    -0.74200
O297        O  0.67442172  0.89178920  0.58023525    -0.74100
O298        O  0.76273893  0.87870631  0.57695298    -0.79700
O299        O  0.70957902  0.95833143  0.58829842    -0.77900
O300        O  0.71442233  0.92758345  0.54809513    -1.14100
O301        O  0.68186497  0.01243355  0.55851889    -0.73300
C302        C  0.66656284  0.02465692  0.54152560     0.97400
C303        C  0.73790315  0.83707298  0.52201385     0.93800
Al304      Al  0.71218732  0.86938269  0.55999271     1.55600
O305        O  0.75195191  0.95885873  0.51408176    -0.77900
C306        C  0.68017093  0.92755503  0.59208017     0.98000
C307        C  0.63633833  0.86644573  0.53304698     0.92900
O308        O  0.64225074  0.91025466  0.52762110    -0.83200
O309        O  0.39552979  0.59379546  0.77179940    -0.82700
C310        C  0.53959859  0.59731912  0.82295800     0.96700
O311        O  0.50793229  0.62570355  0.82485687    -0.71800
O312        O  0.50093505  0.66284466  0.78833496    -0.75400
Al313      Al  0.46075327  0.63489156  0.80621161     1.49000
C314        C  0.49265443  0.66729504  0.76962533     0.91900
O315        O  0.50605721  0.54572410  0.76116172    -0.81600
O316        O  0.43013676  0.49186523  0.80345395    -0.75200
Al317      Al  0.45153456  0.57015818  0.76794631     1.90100
O318        O  0.50986873  0.49335254  0.78630470    -0.74200
O319        O  0.45484971  0.54623587  0.83417045    -0.74100
O320        O  0.53453810  0.55572432  0.81491296    -0.79700
O321        O  0.42013496  0.61232202  0.82506879    -0.77900
O322        O  0.46448465  0.57685448  0.79423761    -1.14100
O323        O  0.41362544  0.65803275  0.78980915    -0.73300
C324        C  0.38902377  0.63748997  0.77697752     0.97400
C325        C  0.52014822  0.50627424  0.76838807     0.93800
Al326      Al  0.48125946  0.52578958  0.80868038     1.55600
O327        O  0.47179664  0.63440521  0.76015155    -0.77900
C328        C  0.42616381  0.57796701  0.83749667     0.98000
C329        C  0.41651712  0.48067795  0.78591959     0.92900
O330        O  0.42776066  0.50485864  0.77032296    -0.83200
O331        O  0.35931864  0.59066378  0.97523540    -0.82700
C332        C  0.20913485  0.59296144  0.92791834     0.96700
O333        O  0.24010291  0.62247703  0.92556651    -0.71800
O334        O  0.25199733  0.65819965  0.96210304    -0.75400
Al335      Al  0.28975929  0.63163932  0.94285484     1.49000
C336        C  0.26177256  0.66181211  0.98070759     0.91900
O337        O  0.24995974  0.53995344  0.98799865    -0.81600
O338        O  0.32068325  0.48798933  0.94366399    -0.75200
Al339      Al  0.30370684  0.56559634  0.98018893     1.90100
O340        O  0.24279422  0.48857012  0.96246274    -0.74200
O341        O  0.29321139  0.54366716  0.91402998    -0.74100
O342        O  0.21584492  0.55119541  0.93523789    -0.79700
O343        O  0.32788417  0.61054413  0.92263965    -0.77900
O344        O  0.28779372  0.57297831  0.95434081    -1.14100
O345        O  0.33897631  0.65509887  0.95809619    -0.73300
C346        C  0.36529302  0.63459489  0.97002242     0.97400
C347        C  0.23392075  0.50141397  0.98054899     0.93800
Al348      Al  0.26946743  0.52204417  0.93988075     1.55600
O349        O  0.28402274  0.62895106  0.98918327    -0.77900
C350        C  0.32150974  0.57582199  0.91031648     0.98000
C351        C  0.33421077  0.47507872  0.96096708     0.92900
O352        O  0.32676629  0.50078261  0.97666514    -0.83200
O353        O  0.67415585  0.51509513  0.02435486    -0.82700
C354        C  0.78915495  0.41953759  0.07366302     0.96700
O355        O  0.78275002  0.46170609  0.06672009    -0.71800
O356        O  0.75773539  0.52537912  0.03945078    -0.75400
Al357      Al  0.72946146  0.49108455  0.06156905     1.49000
C358        C  0.76711185  0.51399288  0.02121222     0.91900
O359        O  0.71650252  0.38726850  0.01089346    -0.81600
O360        O  0.66119011  0.35995973  0.04125998    -0.75200
Al361      Al  0.69696059  0.45027372  0.02040860     1.90100
O362        O  0.74822368  0.35645850  0.03784649    -0.74200
O363        O  0.67034045  0.40147637  0.07715380    -0.74100
O364        O  0.75827848  0.38959898  0.07506136    -0.79700
O365        O  0.70373197  0.46793620  0.08700492    -0.77900
O366        O  0.71193166  0.44118168  0.04634401    -1.14100
O367        O  0.67857871  0.52561048  0.05750580    -0.73300
C368        C  0.66590539  0.53976303  0.04024351     0.97400
C369        C  0.73880917  0.35413185  0.01915783     0.93800
Al370      Al  0.70955079  0.38184668  0.05712916     1.55600
O371        O  0.75113235  0.47596820  0.01327482    -0.77900
C372        C  0.67554597  0.43508926  0.09005710     0.98000
C373        C  0.63506917  0.38110762  0.02943701     0.92900
O374        O  0.64103571  0.42528912  0.02466630    -0.83200
O375        O  0.57338806  0.51199589  0.22999697    -0.82700
C376        C  0.46002902  0.41251031  0.18002099     0.96700
O377        O  0.46447035  0.45410712  0.18797297    -0.71800
O378        O  0.48799913  0.51832164  0.21571827    -0.75400
Al379      Al  0.51659678  0.48662883  0.19311117     1.49000
C380        C  0.47965694  0.50573324  0.23391820     0.91900
O381        O  0.53435485  0.38112744  0.24238185    -0.81600
O382        O  0.59053467  0.35805196  0.21124747    -0.75200
Al383      Al  0.55227068  0.44565272  0.23351233     1.90100
O384        O  0.50405391  0.34998712  0.21496787    -0.74200
O385        O  0.57906318  0.40184019  0.17579747    -0.74100
O386        O  0.49201793  0.38462701  0.17825098    -0.79700
O387        O  0.54199840  0.46673330  0.16731426    -0.77900
O388        O  0.53674306  0.43709238  0.20756324    -1.14100
O389        O  0.56605531  0.52365540  0.19706580    -0.73300
C390        C  0.57967673  0.53774675  0.21419125     0.97400
C391        C  0.51268669  0.34761655  0.23371813     0.93800
Al392      Al  0.54121606  0.37861983  0.19590110     1.55600
O393        O  0.49757630  0.46877886  0.24156329    -0.77900
C394        C  0.57141668  0.43619652  0.16355062     0.98000
C395        C  0.61619874  0.37987497  0.22315082     0.92900
O396        O  0.60878235  0.42334964  0.22860233    -0.83200
O397        O  0.36036467  0.08022546  0.47785519    -0.82700
C398        C  0.20955679  0.08636418  0.43103025     0.96700
O399        O  0.24191109  0.11328924  0.42796679    -0.71800
O400        O  0.25450683  0.15025978  0.46388897    -0.75400
Al401      Al  0.29146785  0.12144186  0.44524135     1.49000
C402        C  0.26391762  0.15564558  0.48241355     0.91900
O403        O  0.24984818  0.03505835  0.49216939    -0.81600
O404        O  0.31741320  0.97785151  0.44761524    -0.75200
Al405      Al  0.30414817  0.05804734  0.48349011     1.90100
O406        O  0.24052161  0.98233548  0.46728039    -0.74200
O407        O  0.29073173  0.03251342  0.41744007    -0.74100
O408        O  0.21417227  0.04501971  0.43924839    -0.79700
O409        O  0.32882075  0.09748141  0.42546989    -0.77900
O410        O  0.28769392  0.06411145  0.45759873    -1.14100
O411        O  0.34099237  0.14375681  0.45998399    -0.73300
C412        C  0.36745756  0.12318045  0.47173802     0.97400
C413        C  0.23292108  0.99637017  0.48539707     0.93800
Al414      Al  0.26713452  0.01339864  0.44389630     1.55600
O415        O  0.28619540  0.12376710  0.49167258    -0.77900
C416        C  0.31956060  0.06374183  0.41314252     0.98000
C417        C  0.33211137  0.96521749  0.46473752     0.92900
O418        O  0.32562628  0.99149014  0.48046135    -0.83200
O419        O  0.38912736  0.08508435  0.27467252    -0.82700
C420        C  0.53640097  0.09273985  0.32438645     0.96700
O421        O  0.50477766  0.12125539  0.32637886    -0.71800
O422        O  0.49385846  0.15731093  0.28990154    -0.75400
Al423      Al  0.45565297  0.12839872  0.30844420     1.49000
C424        C  0.48535462  0.16045287  0.27116624     0.91900
O425        O  0.50076484  0.03890199  0.26317068    -0.81600
O426        O  0.42842664  0.98412312  0.30645078    -0.75200
Al427      Al  0.44570072  0.06245610  0.27044996     1.90100
O428        O  0.50734631  0.98835852  0.28884597    -0.74200
O429        O  0.45266587  0.03978107  0.33663568    -0.74100
O430        O  0.53092209  0.05102901  0.31668226    -0.79700
O431        O  0.41657470  0.10490983  0.32797379    -0.77900
O432        O  0.45988712  0.07021188  0.29659809    -1.14100
O433        O  0.40678818  0.14958476  0.29269052    -0.73300
C434        C  0.38150266  0.12829698  0.28037727     0.97400
C435        C  0.51723718  0.00111964  0.27091060     0.93800
Al436      Al  0.47847472  0.01996012  0.31108688     1.55600
O437        O  0.46429322  0.12703306  0.26212669    -0.77900
C438        C  0.42271333  0.06974983  0.34001519     0.98000
C439        C  0.41578813  0.97073745  0.28904215     0.92900
O440        O  0.42371371  0.99641080  0.27339023    -0.83200
O441        O  0.09419363  0.50191460  0.72869800    -0.82700
C442        C  0.96784051  0.41082038  0.67975536     0.96700
O443        O  0.98062983  0.45437801  0.67780613    -0.71800
O444        O  0.97599824  0.50458152  0.71199975    -0.75400
Al445      Al  0.02116041  0.49215986  0.69301412     1.49000
C446        C  0.97965439  0.50956754  0.73111142     0.91900
O447        O  0.01958775  0.39642498  0.74234054    -0.81600
O448        O  0.10993047  0.37914194  0.70214430    -0.75200
Al449      Al  0.05595213  0.44894973  0.73376515     1.90100
O450        O  0.03531783  0.34572368  0.71742939    -0.74200
O451        O  0.06753453  0.40878190  0.66946066    -0.74100
O452        O  0.99211596  0.37907178  0.68731335    -0.79700
O453        O  0.06383475  0.48826341  0.67192498    -0.77900
O454        O  0.04267689  0.44172426  0.70726430    -1.14100
O455        O  0.05583771  0.54030936  0.70559749    -0.73300
C456        C  0.08561584  0.53983983  0.71856560     0.97400
C457        C  0.02012652  0.35389250  0.73479227     0.93800
Al458      Al  0.05041277  0.38365907  0.69498684     1.55600
O459        O  0.01128197  0.49225083  0.74041500    -0.77900
C460        C  0.07674845  0.45053805  0.66271647     0.98000
C461        C  0.12371157  0.38320545  0.72026199     0.92900
O462        O  0.10331473  0.40733778  0.73333673    -0.83200
O463        O  0.15277052  0.49325883  0.52137311    -0.82700
C464        C  0.27840574  0.39607197  0.56786142     0.96700
O465        O  0.26838340  0.44042551  0.57019301    -0.71800
O466        O  0.27251976  0.48989254  0.53628425    -0.75400
Al467      Al  0.22832372  0.48073608  0.55577640     1.49000
C468        C  0.26724474  0.49815586  0.51754057     0.91900
O469        O  0.22403669  0.38572285  0.50699069    -0.81600
O470        O  0.13274863  0.37469707  0.54804150    -0.75200
Al471      Al  0.18907255  0.43943216  0.51560120     1.90100
O472        O  0.20403553  0.33558139  0.53146422    -0.74200
O473        O  0.17939764  0.40103587  0.58019105    -0.74100
O474        O  0.25131219  0.36613273  0.56086718    -0.79700
O475        O  0.18735790  0.48000653  0.57754103    -0.77900
O476        O  0.20317129  0.43182510  0.54191917    -1.14100
O477        O  0.19464977  0.53045349  0.54370956    -0.73300
C478        C  0.16337419  0.53082089  0.53149335     0.97400
C479        C  0.22113777  0.34316886  0.51443885     0.93800
Al480      Al  0.19281475  0.37467221  0.55425986     1.55600
O481        O  0.23448675  0.48243947  0.50844875    -0.77900
C482        C  0.17426182  0.44331899  0.58734438     0.98000
C483        C  0.11899749  0.37694239  0.52986532     0.92900
O484        O  0.14020624  0.39878874  0.51631649    -0.83200
O485        O  0.89025464  0.09069456  0.77170061    -0.82700
C486        C  0.03846264  0.09661777  0.82048840     0.96700
O487        O  0.00651443  0.12431953  0.82308702    -0.71800
O488        O  0.99612888  0.16012982  0.78678254    -0.75400
Al489      Al  0.95765474  0.13243424  0.80518112     1.49000
C490        C  0.98674379  0.16531616  0.76824996     0.91900
O491        O  0.00040579  0.04276250  0.75925041    -0.81600
O492        O  0.92942735  0.98887463  0.80331810    -0.75200
Al493      Al  0.94620750  0.06731108  0.76707971     1.90100
O494        O  0.00699209  0.99182048  0.78480398    -0.74200
O495        O  0.95563926  0.04440676  0.83332653    -0.74100
O496        O  0.03321876  0.05518565  0.81238381    -0.79700
O497        O  0.91879459  0.10951579  0.82475209    -0.77900
O498        O  0.96112820  0.07445475  0.79316813    -1.14100
O499        O  0.90927323  0.15510071  0.78939816    -0.73300
C500        C  0.88425199  0.13462245  0.77673853     0.97400
C501        C  0.01526907  0.00372237  0.76656487     0.93800
Al502      Al  0.98004690  0.02411765  0.80742705     1.55600
O503        O  0.96573466  0.13228219  0.75883539    -0.77900
C504        C  0.92661626  0.07541211  0.83707694     0.98000
C505        C  0.91605136  0.97556133  0.78599719     0.92900
O506        O  0.92337057  0.00139269  0.77027047    -0.83200
O507        O  0.85921896  0.09390605  0.97598990    -0.82700
C508        C  0.71190464  0.10436726  0.92645732     0.96700
O509        O  0.74441857  0.13174963  0.92465295    -0.71800
O510        O  0.75438605  0.16548879  0.96170486    -0.75400
Al511      Al  0.79270565  0.13807317  0.94292387     1.49000
C512        C  0.76283915  0.16766452  0.98049451     0.91900
O513        O  0.74814389  0.04515425  0.98713145    -0.81600
O514        O  0.81843183  0.99360472  0.94267886    -0.75200
Al515      Al  0.80269799  0.06994797  0.97993678     1.90100
O516        O  0.74018856  0.99619778  0.96087286    -0.74200
O517        O  0.79440867  0.05204478  0.91340598    -0.74100
O518        O  0.71599905  0.06209890  0.93385073    -0.79700
O519        O  0.83182963  0.11570379  0.92340938    -0.77900
O520        O  0.78805622  0.07919968  0.95399471    -1.14100
O521        O  0.84098430  0.15921345  0.95898733    -0.73300
C522        C  0.86628182  0.13779769  0.97105638     0.97400
C523        C  0.73168314  0.00744220  0.97918999     0.93800
Al524      Al  0.76859789  0.03000344  0.93883725     1.55600
O525        O  0.78370682  0.13376866  0.98916813    -0.77900
C526        C  0.82465349  0.08243324  0.91052360     0.98000
C527        C  0.83307182  0.98032022  0.95970683     0.92900
O528        O  0.82503500  0.00450773  0.97580974    -0.83200
O529        O  0.88699175  0.67828437  0.97660541    -0.82700
C530        C  0.03670967  0.66482669  0.92909035     0.96700
O531        O  0.00414723  0.63756042  0.92691667    -0.71800
O532        O  0.99121511  0.60499616  0.96362652    -0.75400
Al533      Al  0.95452689  0.63252350  0.94435798     1.49000
C534        C  0.98275401  0.60349776  0.98240052     0.91900
O535        O  0.99818604  0.72510172  0.98896938    -0.81600
O536        O  0.93072745  0.77719306  0.94355390    -0.75200
Al537      Al  0.94361679  0.70139966  0.98117183     1.90100
O538        O  0.00794489  0.77394550  0.96289410    -0.74200
O539        O  0.95671380  0.71777119  0.91488075    -0.74100
O540        O  0.03278556  0.70703338  0.93659843    -0.79700
O541        O  0.91714526  0.65528864  0.92411578    -0.77900
O542        O  0.95939486  0.69144221  0.95545963    -1.14100
O543        O  0.90499277  0.61250354  0.95977567    -0.73300
C544        C  0.87954382  0.63446387  0.97162000     0.97400
C545        C  0.01631661  0.76165548  0.98107239     0.93800
Al546      Al  0.98047989  0.74003210  0.94060189     1.55600
O547        O  0.96178224  0.63771721  0.99077920    -0.77900
C548        C  0.92621538  0.68822602  0.91137505     0.98000
C549        C  0.91572528  0.79153826  0.96038610     0.92900
O550        O  0.92221663  0.76710426  0.97656556    -0.83200
O551        O  0.85672789  0.67540317  0.77204816    -0.82700
C552        C  0.71193259  0.66925359  0.82277482     0.96700
O553        O  0.74366245  0.64087196  0.82462299    -0.71800
O554        O  0.75246659  0.60469465  0.78830621    -0.75400
Al555      Al  0.79176872  0.63278069  0.80631058     1.49000
C556        C  0.76213672  0.59854534  0.76988893     0.91900
O557        O  0.74461604  0.71996734  0.76139100    -0.81600
O558        O  0.82036976  0.77632077  0.80367148    -0.75200
Al559      Al  0.80001738  0.69727537  0.76810806     1.90100
O560        O  0.74057652  0.77321680  0.78641999    -0.74200
O561        O  0.79601071  0.72164795  0.83429138    -0.74100
O562        O  0.71697436  0.71083878  0.81484274    -0.79700
O563        O  0.83138432  0.65568159  0.82545452    -0.77900
O564        O  0.78734467  0.69063999  0.79440418    -1.14100
O565        O  0.84011018  0.61081996  0.79011158    -0.73300
C566        C  0.86436660  0.63200854  0.77733222     0.97400
C567        C  0.72943359  0.75887113  0.76875491     0.93800
Al568      Al  0.76973021  0.74151678  0.80879351     1.55600
O569        O  0.78175890  0.63192807  0.76022381    -0.77900
C570        C  0.82446830  0.68987680  0.83784913     0.98000
C571        C  0.83309060  0.78799293  0.78607569     0.92900
O572        O  0.82202462  0.76340785  0.77049081    -0.83200
O573        O  0.07485264  0.25181135  0.02339404    -0.82700
C574        C  0.96226330  0.35131556  0.07287634     0.96700
O575        O  0.96693429  0.30932684  0.06531048    -0.71800
O576        O  0.99058995  0.24468166  0.03809261    -0.75400
Al577      Al  0.01915698  0.27734373  0.06035264     1.49000
C578        C  0.98159128  0.25684731  0.01996158     0.91900
O579        O  0.03585540  0.38201211  0.01058545    -0.81600
O580        O  0.09279368  0.40526598  0.04168194    -0.75200
Al581      Al  0.05371565  0.31784151  0.01964920     1.90100
O582        O  0.00658017  0.41337215  0.03798736    -0.74200
O583        O  0.08144687  0.36333920  0.07731609    -0.74100
O584        O  0.99417759  0.37971826  0.07462491    -0.79700
O585        O  0.04429515  0.29823525  0.08593596    -0.77900
O586        O  0.03901122  0.32679224  0.04566944    -1.14100
O587        O  0.06894392  0.24080037  0.05643580    -0.73300
C588        C  0.08220894  0.22662509  0.03925538     0.97400
C589        C  0.01550059  0.41617146  0.01929346     0.93800
Al590      Al  0.04360859  0.38547997  0.05708895     1.55600
O591        O  0.99871544  0.29429777  0.01219835    -0.77900
C592        C  0.07346218  0.32930568  0.08963712     0.98000
C593        C  0.11795868  0.38436714  0.02941105     0.92900
O594        O  0.11051601  0.34082753  0.02392193    -0.83200
O595        O  0.17177769  0.24540608  0.22877168    -0.82700
C596        C  0.28826825  0.34121455  0.18001707     0.96700
O597        O  0.28233792  0.29946279  0.18757811    -0.71800
O598        O  0.25584765  0.23501079  0.21446748    -0.75400
Al599      Al  0.22889968  0.26956103  0.19218266     1.49000
C600        C  0.26500627  0.24677856  0.23269767     0.91900
O601        O  0.21504751  0.37335407  0.24259262    -0.81600
O602        O  0.15964506  0.40015795  0.21169912    -0.75200
Al603      Al  0.19516752  0.31026455  0.23302820     1.90100
O604        O  0.24645717  0.40480326  0.21564507    -0.74200
O605        O  0.16967168  0.35760010  0.17597397    -0.74100
O606        O  0.25734002  0.37078067  0.17856338    -0.79700
O607        O  0.20504051  0.29256412  0.16655737    -0.77900
O608        O  0.21075631  0.31934938  0.20720110    -1.14100
O609        O  0.17763852  0.23512776  0.19558034    -0.73300
C610        C  0.16298003  0.22187877  0.21259275     0.97400
C611        C  0.23725551  0.40684456  0.23436041     0.93800
Al612      Al  0.20832879  0.37840866  0.19621030     1.55600
O613        O  0.24903960  0.28469350  0.24053204    -0.77900
C614        C  0.17626863  0.32405909  0.16315038     0.98000
C615        C  0.13330980  0.37916336  0.22349302     0.92900
O616        O  0.13931130  0.33523265  0.22857724    -0.83200
O617        O  0.35462688  0.67080096  0.27449742    -0.82700
C618        C  0.20965080  0.66717565  0.32524598     0.96700
O619        O  0.24092767  0.63800777  0.32716220    -0.71800
O620        O  0.25153432  0.59914902  0.29109594    -0.75400
Al621      Al  0.28998824  0.62931024  0.30934564     1.49000
C622        C  0.25957187  0.59512915  0.27235373     0.91900
O623        O  0.24250340  0.71735698  0.26440666    -0.81600
O624        O  0.31938905  0.77235328  0.30658671    -0.75200
Al625      Al  0.29799097  0.69370879  0.27093699     1.90100
O626        O  0.23967533  0.77054740  0.28936922    -0.74200
O627        O  0.29323933  0.71874601  0.33728468    -0.74100
O628        O  0.21537763  0.70873829  0.31746215    -0.79700
O629        O  0.32938120  0.65315346  0.32888543    -0.77900
O630        O  0.28551050  0.68705461  0.29725943    -1.14100
O631        O  0.33874798  0.60748609  0.29346552    -0.73300
C632        C  0.36287440  0.62798232  0.28043067     0.97400
C633        C  0.22773810  0.75647685  0.27183841     0.93800
Al634      Al  0.26824197  0.73841814  0.31161779     1.55600
O635        O  0.27910265  0.62900402  0.26298523    -0.77900
C636        C  0.32217452  0.68787124  0.34100911     0.98000
C637        C  0.33198308  0.78399883  0.28896115     0.92900
O638        O  0.32067283  0.75953519  0.27338047    -0.83200
O639        O  0.39219260  0.66520877  0.47917341    -0.82700
C640        C  0.53869332  0.65761790  0.42931172     0.96700
O641        O  0.50623341  0.63017282  0.42711757    -0.71800
O642        O  0.49519656  0.59282880  0.46342408    -0.75400
Al643      Al  0.45749450  0.62297803  0.44506453     1.49000
C644        C  0.48699833  0.58926493  0.48219193     0.91900
O645        O  0.50377977  0.71108640  0.49094077    -0.81600
O646        O  0.43320210  0.76750236  0.44754879    -0.75200
Al647      Al  0.44885733  0.68786556  0.48341537     1.90100
O648        O  0.51149674  0.76262825  0.46566633    -0.74200
O649        O  0.45724106  0.71175045  0.41728305    -0.74100
O650        O  0.53479972  0.69889510  0.43767595    -0.79700
O651        O  0.41875814  0.64786978  0.42576904    -0.77900
O652        O  0.46295921  0.68071220  0.45729025    -1.14100
O653        O  0.40873536  0.60146377  0.46056358    -0.73300
C654        C  0.38415705  0.62230804  0.47313790     0.97400
C655        C  0.52038992  0.74932884  0.48367034     0.93800
Al656      Al  0.48279606  0.73107390  0.44310419     1.55600
O657        O  0.46724675  0.62314620  0.49145470    -0.77900
C658        C  0.42648152  0.68255457  0.41367714     0.98000
C659        C  0.41829237  0.77900321  0.46476407     0.92900
O660        O  0.42691532  0.75393969  0.48052128    -0.83200
O661        O  0.66011042  0.26526939  0.72460705    -0.82700
C662        C  0.78817737  0.36412196  0.67932668     0.96700
O663        O  0.77575917  0.32088612  0.67607233    -0.71800
O664        O  0.77926024  0.26469541  0.70851795    -0.75400
Al665      Al  0.73445479  0.28116084  0.68978183     1.49000
C666        C  0.77481128  0.25605468  0.72733512     0.91900
O667        O  0.73661568  0.36621731  0.74198532    -0.81600
O668        O  0.64608817  0.39224872  0.70248612    -0.75200
Al669      Al  0.69908829  0.31649042  0.73168473     1.90100
O670        O  0.72074084  0.42173101  0.71902926    -0.74200
O671        O  0.68785449  0.36868595  0.66897856    -0.74100
O672        O  0.76358369  0.39418586  0.68784820    -0.79700
O673        O  0.69194805  0.28934953  0.66905265    -0.77900
O674        O  0.71286088  0.32865827  0.70558392    -1.14100
O675        O  0.69889416  0.23226660  0.70028055    -0.73300
C676        C  0.66825667  0.23008843  0.71270454     0.97400
C677        C  0.73612062  0.41009511  0.73602237     0.93800
Al678      Al  0.70540843  0.38866809  0.69530496     1.55600
O679        O  0.74274033  0.27131362  0.73686620    -0.77900
C680        C  0.67809096  0.32821215  0.66117435     0.98000
C681        C  0.63247843  0.38626517  0.72049173     0.92900
O682        O  0.65231993  0.35932700  0.73278271    -0.83200
O683        O  0.57868875  0.23840913  0.52428223    -0.82700
C684        C  0.45525460  0.33194707  0.56956277     0.96700
O685        O  0.46404222  0.28978061  0.56316976    -0.71800
O686        O  0.49429281  0.22691067  0.53695269    -0.75400
Al687      Al  0.51879961  0.26209401  0.55976424     1.49000
C688        C  0.48653135  0.23888288  0.51863891     0.91900
O689        O  0.53661496  0.36627929  0.50953072    -0.81600
O690        O  0.58661832  0.39491719  0.54129608    -0.75200
Al691      Al  0.55566278  0.30330446  0.51971556     1.90100
O692        O  0.49965452  0.39440443  0.53531934    -0.74200
O693        O  0.57314730  0.35434415  0.57707998    -0.74100
O694        O  0.48513847  0.36288547  0.57206176    -0.79700
O695        O  0.54058531  0.28635467  0.58575581    -0.77900
O696        O  0.53709929  0.31223483  0.54510717    -1.14100
O697        O  0.57100184  0.22920999  0.55726581    -0.73300
C698        C  0.58541409  0.21416174  0.54043808     0.97400
C699        C  0.51245576  0.39857879  0.51721385     0.93800
Al700      Al  0.53635098  0.37178250  0.55575951     1.55600
O701        O  0.50295691  0.27691869  0.51105156    -0.77900
C702        C  0.56769209  0.31989177  0.58953904     0.98000
C703        C  0.61492910  0.37387350  0.53059535     0.92900
O704        O  0.61043005  0.32928876  0.52592650    -0.83200
C705        C  0.63434875  0.28109042  0.63573496    -0.27200
C706        C  0.64937326  0.32664529  0.64291220    -0.15300
C707        C  0.63523893  0.36965402  0.63277534     0.35400
C708        C  0.60798899  0.36585332  0.61592778    -0.26600
C709        C  0.59341877  0.32042975  0.60865088    -0.15900
C710        C  0.60666473  0.27752516  0.61887554     0.36500
N711        N  0.59386197  0.22977397  0.61217028    -0.90100
H712        H  0.64418747  0.24769840  0.64325008     0.17600
H713        H  0.59814972  0.39923243  0.60837570     0.17600
N714        N  0.64786072  0.41795930  0.63892472    -0.89200
H715        H  0.60326435  0.22531661  0.59696480     0.34900
H716        H  0.56054081  0.22700794  0.61311127     0.40000
H717        H  0.68121280  0.42082878  0.63836603     0.39700
H718        H  0.63687115  0.42460551  0.65375309     0.34500
C719        C  0.52661917  0.51087122  0.48400341    -0.27200
C720        C  0.49558947  0.54214626  0.49232785    -0.15300
C721        C  0.46862486  0.52453211  0.50795790     0.35400
C722        C  0.47292670  0.47645046  0.51480602    -0.26600
C723        C  0.50409810  0.44519648  0.50661857    -0.15900
C724        C  0.53138872  0.46288605  0.49110824     0.36500
N725        N  0.56483338  0.43301373  0.48293018    -0.90100
H726        H  0.54730592  0.52367721  0.47183060     0.17600
H727        H  0.45200682  0.46382972  0.52692606     0.17600
N728        N  0.43584666  0.55461413  0.51656912    -0.89200
H729        H  0.59404932  0.45086774  0.48546375     0.34900
H730        H  0.56022909  0.43008398  0.46714702     0.40000
H731        H  0.44145716  0.55758100  0.53227855     0.39700
H732        H  0.40659434  0.53652178  0.51454009     0.34500
C733        C  0.38579634  0.71605073  0.36045234    -0.27200
C734        C  0.34671907  0.69077726  0.36009067    -0.15300
C735        C  0.33307672  0.66511790  0.37750774     0.35400
C736        C  0.35925087  0.66390068  0.39480304    -0.26600
C737        C  0.39925880  0.68788729  0.39518698    -0.15900
C738        C  0.41232332  0.71510248  0.37787053     0.36500
N739        N  0.45268257  0.74059375  0.37774840    -0.90100
H740        H  0.39617824  0.73529329  0.34689075     0.17600
H741        H  0.34826042  0.64350933  0.40798974     0.17600
N742        N  0.29301493  0.63937011  0.37786581    -0.89200
H743        H  0.45666080  0.75980595  0.36408334     0.34900
H744        H  0.47688943  0.71431238  0.37816240     0.40000
H745        H  0.29312754  0.61318418  0.36620149     0.39700
H746        H  0.26857254  0.66434045  0.37482907     0.34500
C747        C  0.21715302  0.46809924  0.26049411    -0.27200
C748        C  0.24663513  0.45231953  0.24570483    -0.15300
C749        C  0.27995103  0.48403332  0.23966046     0.35400
C750        C  0.28225383  0.53133947  0.24785924    -0.26600
C751        C  0.25209570  0.54759559  0.26223800    -0.15900
C752        C  0.21965645  0.51529682  0.26881363     0.36500
N753        N  0.18867415  0.53058794  0.28361281    -0.90100
H754        H  0.19085846  0.44449752  0.26501872     0.17600
H755        H  0.30855597  0.55496863  0.24336047     0.17600
N756        N  0.31173517  0.46818100  0.22535535    -0.89200
H757        H  0.19028457  0.50677859  0.29606785     0.34900
H758        H  0.15823208  0.52716024  0.27706988     0.40000
H759        H  0.34174630  0.47115919  0.23237505     0.39700
H760        H  0.31129083  0.49194033  0.21286165     0.34500
C761        C  0.12205255  0.36256174  0.14059342    -0.27200
C762        C  0.15017094  0.32323915  0.14405993    -0.15300
C763        C  0.15159157  0.28483642  0.12939989     0.35400
C764        C  0.12534379  0.28688082  0.11201959    -0.26600
C765        C  0.09814709  0.32663936  0.10868472    -0.15900
C766        C  0.09641888  0.36469288  0.12315881     0.36500
N767        N  0.06821862  0.40548892  0.12073207    -0.90100
H768        H  0.11989089  0.39237179  0.15147198     0.17600
H769        H  0.12686945  0.25770646  0.10079952     0.17600
N770        N  0.17910645  0.24342376  0.13156040    -0.89200
H771        H  0.03693329  0.39218188  0.11918681     0.34900
H772        H  0.07646918  0.42411622  0.10737313     0.40000
H773        H  0.17170669  0.22556005  0.14521647     0.39700
H774        H  0.21087170  0.25558698  0.13196311     0.34500
C775        C  0.73007005  0.51567038  0.77160995    -0.27200
C776        C  0.75644731  0.54915754  0.76118221    -0.15300
C777        C  0.78193069  0.53236019  0.74487649     0.35400
C778        C  0.77928848  0.48340193  0.73889384    -0.26600
C779        C  0.75109569  0.45078975  0.74855666    -0.15900
C780        C  0.72694944  0.46679069  0.76552330     0.36500
N781        N  0.69692773  0.43584379  0.77608873    -0.90100
H782        H  0.71108916  0.52764790  0.78452849     0.17600
H783        H  0.79708315  0.47157055  0.72555516     0.17600
N784        N  0.81034418  0.56463957  0.73420510    -0.89200
H785        H  0.70689530  0.43365334  0.79131739     0.34900
H786        H  0.69715669  0.40016059  0.77050455     0.40000
H787        H  0.80136348  0.56496312  0.71880809     0.39700
H788        H  0.84121199  0.55018565  0.73512519     0.34500
C789        C  0.02427755  0.52710630  0.98477899    -0.27200
C790        C  0.99355017  0.55821519  0.99349958    -0.15300
C791        C  0.96919438  0.54115833  0.01027366     0.35400
C792        C  0.97577949  0.49398036  0.01762962    -0.26600
C793        C  0.00598438  0.46255745  0.00869765    -0.15900
C794        C  0.03055617  0.47974415  0.99199577     0.36500
N795        N  0.06251932  0.45066942  0.98214193    -0.90100
H796        H  0.04314041  0.53928425  0.97183622     0.17600
H797        H  0.95692713  0.48183818  0.03057805     0.17600
N798        N  0.93661843  0.56989014  0.01983268    -0.89200
H799        H  0.04798862  0.41904767  0.97623371     0.34900
H800        H  0.08565785  0.44107310  0.99284592     0.40000
H801        H  0.91333673  0.57841145  0.00895346     0.39700
H802        H  0.95044778  0.60203993  0.02549042     0.34500
C803        C  0.87936262  0.64799926  0.88592060    -0.27200
C804        C  0.90120895  0.69053391  0.89215601    -0.15300
C805        C  0.89686916  0.73374471  0.88037493     0.35400
C806        C  0.87038203  0.73347975  0.86307514    -0.26600
C807        C  0.84903451  0.69073364  0.85696746    -0.15900
C808        C  0.85347458  0.64759858  0.86847406     0.36500
N809        N  0.83134564  0.60359197  0.86244325    -0.90100
H810        H  0.88249328  0.61463349  0.89468955     0.17600
H811        H  0.86733102  0.76646883  0.85404428     0.17600
N812        N  0.91834655  0.77844128  0.88560560    -0.89200
H813        H  0.79849585  0.61017154  0.86365849     0.34900
H814        H  0.83825228  0.57496306  0.87247426     0.40000
H815        H  0.95138155  0.77274287  0.88499478     0.39700
H816        H  0.90966354  0.78842243  0.90045516     0.34500
C817        C  0.85396620  0.90422121  0.97806989    -0.27200
C818        C  0.85705036  0.93396205  0.96064600    -0.15300
C819        C  0.87903296  0.91642056  0.94335729     0.35400
C820        C  0.89681047  0.86969705  0.94362600    -0.26600
C821        C  0.89354049  0.83942090  0.96090833    -0.15900
C822        C  0.87182655  0.85708271  0.97831773     0.36500
N823        N  0.86705737  0.82717657  0.99610831    -0.90100
H824        H  0.83637446  0.91689073  0.99131155     0.17600
H825        H  0.91385510  0.85750606  0.93014885     0.17600
N826        N  0.88377292  0.94612598  0.92546567    -0.89200
H827        H  0.83433175  0.82286381  0.99897992     0.34900
H828        H  0.88067553  0.84580931  0.00849909     0.40000
H829        H  0.87011445  0.92740646  0.91310463     0.39700
H830        H  0.91647432  0.95052221  0.92255280     0.34500
C831        C  0.93703153  0.24355591  0.98869615    -0.27200
C832        C  0.95282680  0.22555002  0.00731921    -0.15300
C833        C  0.94300794  0.17683721  0.01286041     0.35400
C834        C  0.91722313  0.14786847  0.00005527    -0.26600
C835        C  0.90020993  0.16637928  0.98176430    -0.15900
C836        C  0.91084302  0.21470628  0.97599109     0.36500
N837        N  0.89483428  0.23503122  0.95734278    -0.90100
H838        H  0.94461555  0.28055630  0.98398692     0.17600
H839        H  0.90918621  0.11114047  0.00496098     0.17600
N840        N  0.95911135  0.15630005  0.03145747    -0.89200
H841        H  0.92098024  0.24584654  0.94844668     0.34900
H842        H  0.87711551  0.26622106  0.96095858     0.40000
H843        H  0.93302139  0.14500099  0.04028774     0.39700
H844        H  0.97718679  0.12542550  0.02777792     0.34500
C845        C  0.90782301  0.89146366  0.79882032    -0.27200
C846        C  0.89567605  0.92685633  0.78439908    -0.15300
C847        C  0.86614205  0.91423092  0.76889887     0.35400
C848        C  0.84794496  0.86700140  0.76879332    -0.26600
C849        C  0.85865092  0.83285452  0.78394646    -0.15900
C850        C  0.88978949  0.84465288  0.79870880     0.36500
N851        N  0.90254286  0.80909834  0.81368375    -0.90100
H852        H  0.93166872  0.90030597  0.81031482     0.17600
H853        H  0.82369997  0.85768692  0.75755323     0.17600
N854        N  0.85374487  0.94958513  0.75381658    -0.89200
H855        H  0.92569100  0.82367927  0.82355429     0.34900
H856        H  0.91704078  0.78014922  0.80590255     0.40000
H857        H  0.83778145  0.97783182  0.76138846     0.39700
H858        H  0.83179522  0.93427428  0.74352452     0.34500
C859        C  0.90022790  0.11800398  0.86756560    -0.27200
C860        C  0.90291553  0.07443536  0.85645122    -0.15300
C861        C  0.88045832  0.03280540  0.86318812     0.35400
C862        C  0.85476909  0.03584660  0.88081030    -0.26600
C863        C  0.85168978  0.07987027  0.89191453    -0.15900
C864        C  0.87526240  0.12112191  0.88520457     0.36500
N865        N  0.87332080  0.16680742  0.89592751    -0.90100
H866        H  0.91745328  0.15019329  0.86239403     0.17600
H867        H  0.83729088  0.00372018  0.88580945     0.17600
N868        N  0.88250779  0.98808494  0.85181085    -0.89200
H869        H  0.86219884  0.19346471  0.88581799     0.34900
H870        H  0.90439580  0.17645310  0.90039657     0.40000
H871        H  0.85141593  0.97863190  0.84730074     0.39700
H872        H  0.89372639  0.96074860  0.86156694     0.34500
C873        C  0.81655842  0.24135472  0.75877503    -0.27200
C874        C  0.80565849  0.22629456  0.73890461    -0.15300
C875        C  0.81849267  0.17966575  0.73207924     0.35400
C876        C  0.84144631  0.14911748  0.74524444    -0.26600
C877        C  0.85303736  0.16441997  0.76509154    -0.15900
C878        C  0.84049432  0.21127721  0.77177283     0.36500
N879        N  0.85186578  0.22856103  0.79174049    -0.90100
H880        H  0.80615816  0.27675877  0.76430941     0.17600
H881        H  0.85168364  0.11382586  0.73954973     0.17600
N882        N  0.80792629  0.16197008  0.71206875    -0.89200
H883        H  0.82368257  0.23707571  0.79955455     0.34900
H884        H  0.86967365  0.26077699  0.79006900     0.40000
H885        H  0.82153251  0.18553394  0.70130945     0.39700
H886        H  0.77462968  0.16249416  0.71035188     0.34500
C887        C  0.30415225  0.52164343  0.48528439    -0.27200
C888        C  0.29762812  0.52965883  0.50626502    -0.15300
C889        C  0.31680778  0.57073582  0.51574016     0.35400
C890        C  0.34227752  0.60252589  0.50407591    -0.26600
C891        C  0.35012518  0.59353810  0.48328226    -0.15900
C892        C  0.33075035  0.55271234  0.47383244     0.36500
N893        N  0.33797132  0.54269959  0.45262729    -0.90100
H894        H  0.28896571  0.49071341  0.47778653     0.17600
H895        H  0.35782988  0.63322003  0.51156322     0.17600
N896        N  0.31029771  0.58025073  0.53713309    -0.89200
H897        H  0.30831767  0.54227425  0.44518897     0.34900
H898        H  0.35123334  0.50778082  0.45140617     0.40000
H899        H  0.27799551  0.58888165  0.53915123     0.39700
H900        H  0.32782224  0.61095059  0.54182907     0.34500
C901        C  0.33290773  0.32946175  0.56944725    -0.27200
C902        C  0.32306530  0.37923090  0.57202859    -0.15300
C903        C  0.35706783  0.41232572  0.57599114     0.35400
C904        C  0.39959649  0.39554465  0.57649351    -0.26600
C905        C  0.40957387  0.34622817  0.57277520    -0.15900
C906        C  0.37539937  0.31279240  0.56968127     0.36500
N907        N  0.38347534  0.26196735  0.56607084    -0.90100
H908        H  0.30758302  0.30322792  0.56636153     0.17600
H909        H  0.42508955  0.42199995  0.57880790     0.17600
N910        N  0.34903773  0.46348044  0.57860479    -0.89200
H911        H  0.37080466  0.25269539  0.55176886     0.34900
H912        H  0.36716743  0.24171609  0.57715947     0.40000
H913        H  0.36581455  0.48250895  0.56729295     0.39700
H914        H  0.36123011  0.47415202  0.59282668     0.34500
C915        C  0.02585218  0.24443926  0.76840487    -0.27200
C916        C  0.99545391  0.21350835  0.75898554    -0.15300
C917        C  0.96938670  0.23239362  0.74326207     0.35400
C918        C  0.97516013  0.28074642  0.73685296    -0.26600
C919        C  0.00592001  0.31099967  0.74607951    -0.15900
C920        C  0.03134177  0.29284942  0.76200506     0.36500
N921        N  0.06429587  0.32267975  0.77092195    -0.90100
H922        H  0.04569196  0.23096026  0.78076034     0.17600
H923        H  0.95651887  0.29430219  0.72408234     0.17600
N924        N  0.93655168  0.20317552  0.73395701    -0.89200
H925        H  0.05864939  0.32489433  0.78663899     0.34900
H926        H  0.09363974  0.30515343  0.76874336     0.40000
H927        H  0.94283268  0.20107270  0.71829280     0.39700
H928        H  0.90748537  0.22142308  0.73582107     0.34500
C929        C  0.12974458  0.41253042  0.63961353    -0.27200
C930        C  0.10391396  0.45308905  0.64405392    -0.15300
C931        C  0.10409853  0.49298783  0.63038981     0.35400
C932        C  0.12834742  0.49041046  0.61218388    -0.26600
C933        C  0.15252539  0.44854228  0.60744149    -0.15900
C934        C  0.15404357  0.41006613  0.62174487     0.36500
N935        N  0.18069333  0.36830091  0.61833187    -0.90100
H936        H  0.13121249  0.38201659  0.65013412     0.17600
H937        H  0.12711331  0.52050106  0.60145710     0.17600
N938        N  0.07881304  0.53536532  0.63455648    -0.89200
H939        H  0.16125637  0.33706361  0.61835968     0.34900
H940        H  0.20222548  0.36564960  0.63052543     0.40000
H941        H  0.05742584  0.54008619  0.62242056     0.39700
H942        H  0.09929384  0.56570271  0.63497588     0.34500
C943        C  0.93565042  0.58399714  0.73483101    -0.27200
C944        C  0.94882565  0.53916490  0.74287259    -0.15300
C945        C  0.93688361  0.52641302  0.76299425     0.35400
C946        C  0.91109147  0.55842921  0.77444493    -0.26600
C947        C  0.89755665  0.60335686  0.76635667    -0.15900
C948        C  0.91067061  0.61631450  0.74636808     0.36500
N949        N  0.89761353  0.66153687  0.73733971    -0.90100
H950        H  0.94563546  0.59461250  0.71960796     0.17600
H951        H  0.90089198  0.54783081  0.78962694     0.17600
N952        N  0.95061929  0.48077821  0.77162590    -0.89200
H953        H  0.88038692  0.65357444  0.72401880     0.34900
H954        H  0.92512116  0.68109930  0.73324112     0.40000
H955        H  0.93665706  0.45263053  0.76303098     0.39700
H956        H  0.93925610  0.47696815  0.78656211     0.34500
C957        C  0.86335643  0.34124058  0.67065317    -0.27200
C958        C  0.83327009  0.37821372  0.67472639    -0.15300
C959        C  0.84802817  0.42683699  0.67723589     0.35400
C960        C  0.89220635  0.43648889  0.67727981    -0.26600
C961        C  0.92238036  0.39885994  0.67512522    -0.15900
C962        C  0.90748412  0.35080694  0.67107303     0.36500
N963        N  0.93608551  0.31082878  0.66759142    -0.90100
H964        H  0.85276932  0.30381373  0.66841337     0.17600
H965        H  0.90308739  0.47351105  0.68025307     0.17600
N966        N  0.81835406  0.46609126  0.68059738    -0.89200
H967        H  0.95331400  0.30388755  0.68095376     0.34900
H968        H  0.95732384  0.32052708  0.65593258     0.40000
H969        H  0.80020437  0.46997287  0.66726810     0.39700
H970        H  0.83450761  0.49925033  0.68284692     0.34500
C971        C  0.34638768  0.86347408  0.27192906    -0.27200
C972        C  0.35758226  0.82874697  0.28677900    -0.15300
C973        C  0.38930682  0.84003742  0.30127389     0.35400
C974        C  0.40797294  0.88638288  0.30139050    -0.26600
C975        C  0.39546484  0.92222077  0.28728423    -0.15900
C976        C  0.36508626  0.91035792  0.27211682     0.36500
N977        N  0.35180989  0.94622997  0.25754717    -0.90100
H978        H  0.32151748  0.85510867  0.26087096     0.17600
H979        H  0.43233042  0.89439371  0.31275482     0.17600
N980        N  0.40242046  0.80450660  0.31603893    -0.89200
H981        H  0.31877502  0.95107031  0.25907645     0.34900
H982        H  0.35765069  0.93234135  0.24292331     0.40000
H983        H  0.39719961  0.81913582  0.33059640     0.39700
H984        H  0.43531587  0.79886225  0.31434869     0.34500
C985        C  0.30996741  0.23329943  0.26376863    -0.27200
C986        C  0.29296933  0.21498974  0.24536173    -0.15300
C987        C  0.30100987  0.16578444  0.24006752     0.35400
C988        C  0.32770092  0.13718138  0.25245124    -0.26600
C989        C  0.34657769  0.15629521  0.27031013    -0.15900
C990        C  0.33630339  0.20451229  0.27627055     0.36500
N991        N  0.35268896  0.22471865  0.29493480    -0.90100
H992        H  0.30320075  0.27048520  0.26847123     0.17600
H993        H  0.33472670  0.10017545  0.24759406     0.17600
N994        N  0.28189612  0.14432471  0.22224399    -0.89200
H995        H  0.32670089  0.23511576  0.30398431     0.34900
H996        H  0.37033877  0.25615516  0.29139257     0.40000
H997        H  0.26348842  0.11428443  0.22684652     0.39700
H998        H  0.30641769  0.13159261  0.21279117     0.34500
C999        C  0.34720566  0.88396903  0.44982880    -0.27200
C1000       C  0.35381016  0.91714802  0.46600520    -0.15300
C1001       C  0.37915897  0.90267246  0.48277802     0.35400
C1002       C  0.39799887  0.85598218  0.48281894    -0.26600
C1003       C  0.39250234  0.82391443  0.46619411    -0.15900
C1004       C  0.36617172  0.83779780  0.44971752     0.36500
N1005       N  0.35906836  0.80501201  0.43279555    -0.90100
H1006       H  0.32694759  0.89392089  0.43705957     0.17600
H1007       H  0.41851659  0.84567950  0.49545111     0.17600
N1008       N  0.38704107  0.93558678  0.49942160    -0.89200
H1009       H  0.33924499  0.82096362  0.42180990     0.34900
H1010       H  0.34270918  0.77437125  0.43835766     0.40000
H1011       H  0.42011991  0.94105419  0.50058819     0.39700
H1012       H  0.37659850  0.91875751  0.51285993     0.34500
C1013       C  0.27117664  0.27500410  0.51154413    -0.27200
C1014       C  0.23563522  0.29974623  0.50362244    -0.15300
C1015       C  0.20762338  0.27569243  0.49004544     0.35400
C1016       C  0.21649311  0.22751771  0.48417250    -0.26600
C1017       C  0.25231271  0.20262683  0.49190799    -0.15900
C1018       C  0.27990977  0.22673471  0.50572820     0.36500
N1019       N  0.31706735  0.20279509  0.51365808    -0.90100
H1020       H  0.29149501  0.29279897  0.52280467     0.17600
H1021       H  0.19514628  0.20907578  0.47358276     0.17600
N1022       N  0.16966631  0.29974411  0.48278480    -0.89200
H1023       H  0.31453422  0.20197113  0.52958171     0.34900
H1024       H  0.34388462  0.22398778  0.50997520     0.40000
H1025       H  0.14951391  0.30520479  0.49530879     0.39700
H1026       H  0.15282993  0.27712784  0.47264344     0.34500
C1027       C  0.37504251  0.10803788  0.36553917    -0.27200
C1028       C  0.39513404  0.06546546  0.35840664    -0.15300
C1029       C  0.38696722  0.02058713  0.36862630     0.35400
C1030       C  0.36035831  0.01989571  0.38592238    -0.26600
C1031       C  0.34211556  0.06310728  0.39338774    -0.15900
C1032       C  0.34889719  0.10724007  0.38282646     0.36500
N1033       N  0.32896622  0.15151009  0.38960305    -0.90100
H1034       H  0.38010527  0.14264549  0.35784905     0.17600
H1035       H  0.35514674  0.98579138  0.39397253     0.17600
N1036       N  0.40457789  0.97518576  0.36175313    -0.89200
H1037       H  0.31005271  0.16483279  0.37767117     0.34900
H1038       H  0.35302806  0.17724605  0.39263332     0.40000
H1039       H  0.43793568  0.97714015  0.36273138     0.39700
H1040       H  0.39559673  0.96964014  0.34652598     0.34500
C1041       C  0.43088356  0.12887048  0.49473628    -0.27200
C1042       C  0.40334526  0.15175364  0.48072059    -0.15300
C1043       C  0.40615330  0.20304778  0.47824741     0.35400
C1044       C  0.43385747  0.23034469  0.49067408    -0.26600
C1045       C  0.45891659  0.20780233  0.50567890    -0.15900
C1046       C  0.45847971  0.15617739  0.50719790     0.36500
N1047       N  0.48601699  0.13032363  0.52094459    -0.90100
H1048       H  0.42982711  0.08953400  0.49666890     0.17600
H1049       H  0.43470061  0.26976373  0.48897483     0.17600
N1050       N  0.37974229  0.22811691  0.46377490    -0.89200
H1051       H  0.47804899  0.13954076  0.53595709     0.34900
H1052       H  0.51769034  0.14077762  0.51808443     0.40000
H1053       H  0.39970119  0.24746655  0.45381568     0.39700
H1054       H  0.36095248  0.25336049  0.47171158     0.34500
C1055       C  0.46198606  0.22675922  0.24839852    -0.27200
C1056       C  0.49423395  0.20691909  0.26076036    -0.15300
C1057       C  0.53075636  0.23513828  0.26545138     0.35400
C1058       C  0.53486547  0.28231694  0.25735790    -0.26600
C1059       C  0.50301632  0.30184452  0.24460769    -0.15900
C1060       C  0.46592079  0.27373507  0.24030629     0.36500
N1061       N  0.43122669  0.29228548  0.22829366    -0.90100
H1062       H  0.43286991  0.20612180  0.24546444     0.17600
H1063       H  0.56387969  0.30300670  0.26044089     0.17600
N1064       N  0.56404563  0.21562127  0.27808851    -0.89200
H1065       H  0.44164710  0.29748443  0.21332258     0.34900
H1066       H  0.42172741  0.32588506  0.23440883     0.40000
H1067       H  0.56798612  0.23878393  0.29069308     0.39700
H1068       H  0.59254792  0.21606239  0.26972526     0.34500
C1069       C  0.40388644  0.55017251  0.27586767    -0.27200
C1070       C  0.39732033  0.59920649  0.27017148    -0.15300
C1071       C  0.41913950  0.61718122  0.25276526     0.35400
C1072       C  0.44535988  0.58595571  0.24126511    -0.26600
C1073       C  0.45083438  0.53666691  0.24660692    -0.15900
C1074       C  0.43025402  0.51897762  0.26432398     0.36500
N1075       N  0.43481089  0.46895367  0.27034224    -0.90100
H1076       H  0.38730055  0.53522293  0.28899030     0.17600
H1077       H  0.46159435  0.60064859  0.22798505     0.17600
N1078       N  0.41411662  0.66682368  0.24626868    -0.89200
H1079       H  0.40435285  0.45292985  0.27062041     0.34900
H1080       H  0.44716359  0.46834406  0.28519864     0.40000
H1081       H  0.40191638  0.66654454  0.23138024     0.39700
H1082       H  0.44437945  0.68332317  0.24594780     0.34500
C1083       C  0.33995697  0.40717904  0.17098996    -0.27200
C1084       C  0.33213990  0.35722443  0.17437137    -0.15300
C1085       C  0.36729040  0.32495513  0.17513496     0.35400
C1086       C  0.40909089  0.34378914  0.17500647    -0.26600
C1087       C  0.41671091  0.39442529  0.17446626    -0.15900
C1088       C  0.38160179  0.42614499  0.17118316     0.36500
N1089       N  0.38688086  0.47774498  0.16829624    -0.90100
H1090       H  0.31348055  0.43245228  0.16964710     0.17600
H1091       H  0.43554473  0.31863345  0.17675090     0.17600
N1092       N  0.36087770  0.27320395  0.17682068    -0.89200
H1093       H  0.40935551  0.48352187  0.15671174     0.34900
H1094       H  0.39776810  0.49371216  0.18185508     0.40000
H1095       H  0.37559145  0.26134383  0.19028115     0.39700
H1096       H  0.37620711  0.25636676  0.16449901     0.34500
C1097       C  0.78549379  0.23153912  0.00496842    -0.27200
C1098       C  0.75422426  0.21372566  0.99137929    -0.15300
C1099       C  0.71954798  0.24387948  0.98583845     0.35400
C1100       C  0.71673319  0.29106107  0.99417408    -0.26600
C1101       C  0.74777796  0.30861223  0.00794338    -0.15900
C1102       C  0.78267805  0.27873681  0.01317601     0.36500
N1103       N  0.81570875  0.29656507  0.02651151    -0.90100
H1104       H  0.81318604  0.20944335  0.00864834     0.17600
H1105       H  0.68926078  0.31349931  0.99050414     0.17600
N1106       N  0.68728476  0.22639042  0.97188152    -0.89200
H1107       H  0.84481166  0.29503632  0.01865826     0.34900
H1108       H  0.81769773  0.27304727  0.03905040     0.40000
H1109       H  0.66404550  0.25312512  0.96937179     0.39700
H1110       H  0.67170866  0.19685490  0.97881131     0.34500
C1111       C  0.64172650  0.47966645  0.11944569    -0.27200
C1112       C  0.64830567  0.43549994  0.10879139    -0.15300
C1113       C  0.62800889  0.39238744  0.11621463     0.35400
C1114       C  0.60287505  0.39436332  0.13380822    -0.26600
C1115       C  0.59618090  0.43828398  0.14430728    -0.15900
C1116       C  0.61571847  0.48153548  0.13696715     0.36500
N1117       N  0.61103294  0.52733054  0.14737566    -0.90100
H1118       H  0.65669435  0.51307124  0.11408054     0.17600
H1119       H  0.58824491  0.36089525  0.13935678     0.17600
N1120       N  0.63290539  0.34553573  0.10666775    -0.89200
H1121       H  0.62152591  0.52310942  0.16244545     0.34900
H1122       H  0.57858735  0.53649527  0.14756416     0.40000
H1123       H  0.66551726  0.33743587  0.10561438     0.39700
H1124       H  0.61915121  0.34638984  0.09211249     0.34500
C1125       C  0.82995385  0.62427727  0.00101633    -0.27200
C1126       C  0.84521620  0.60642314  0.98224815    -0.15300
C1127       C  0.83336647  0.55864845  0.97608913     0.35400
C1128       C  0.80844044  0.52939255  0.98920183    -0.26600
C1129       C  0.79480721  0.54643928  0.00844322    -0.15900
C1130       C  0.80550304  0.59509326  0.01415199     0.36500
N1131       N  0.79250131  0.61622877  0.03319277    -0.90100
H1132       H  0.83895632  0.66060804  0.00614451     0.17600
H1133       H  0.79994835  0.49271250  0.98434363     0.17600
N1134       N  0.84723386  0.53957718  0.95671432    -0.89200
H1135       H  0.80554638  0.59585768  0.04515576     0.34900
H1136       H  0.75907081  0.61560595  0.03404091     0.40000
H1137       H  0.83299866  0.56068374  0.94528941     0.39700
H1138       H  0.83624939  0.50373455  0.95461184     0.34500
C1139       C  0.84190452  0.35350845  0.08060414    -0.27200
C1140       C  0.83350642  0.40370030  0.07855240    -0.15300
C1141       C  0.86840015  0.43683101  0.07833084     0.35400
C1142       C  0.91047027  0.41904524  0.07819618    -0.26600
C1143       C  0.91868381  0.36860502  0.07821533    -0.15900
C1144       C  0.88403125  0.33561433  0.08051140     0.36500
N1145       N  0.89158987  0.28392080  0.08200939    -0.90100
H1146       H  0.81550489  0.32770836  0.08113028     0.17600
H1147       H  0.93667060  0.44493503  0.07675672     0.17600
N1148       N  0.86144297  0.48854336  0.07748213    -0.89200
H1149       H  0.86270697  0.26469337  0.08331843     0.34900
H1150       H  0.90857987  0.27789409  0.09554221     0.40000
H1151       H  0.87601692  0.50200250  0.06424709     0.39700
H1152       H  0.87660547  0.50458485  0.09009317     0.34500
C1153       C  0.17410743  0.39188887  0.00256989    -0.27200
C1154       C  0.15228846  0.41325676  0.01912883    -0.15300
C1155       C  0.15910761  0.46387604  0.02314379     0.35400
C1156       C  0.18617450  0.49118315  0.01055442    -0.26600
C1157       C  0.20605286  0.47029945  0.99348406    -0.15900
C1158       C  0.20047082  0.41984388  0.98969796     0.36500
N1159       N  0.22161964  0.39661027  0.97288472    -0.90100
H1160       H  0.16947969  0.35351102  0.99900486     0.17600
H1161       H  0.19051999  0.52976093  0.01383533     0.17600
N1162       N  0.13829500  0.48947336  0.03943756    -0.89200
H1163       H  0.19826661  0.38078264  0.96347274     0.34900
H1164       H  0.24080959  0.36860894  0.97866650     0.40000
H1165       H  0.14451341  0.47152101  0.05320829     0.39700
H1166       H  0.10537468  0.49048939  0.03660851     0.34500
C1167       C  0.08739349  0.59543236  0.92590930    -0.27200
C1168       C  0.07989317  0.64583320  0.92422467    -0.15300
C1169       C  0.11479517  0.67742055  0.92048498     0.35400
C1170       C  0.15659004  0.65878917  0.92012743    -0.26600
C1171       C  0.16451921  0.60892113  0.92361863    -0.15900
C1172       C  0.12916803  0.57674505  0.92571127     0.36500
N1173       N  0.13536525  0.52526463  0.92837753    -0.90100
H1174       H  0.06092284  0.57052776  0.92864692     0.17600
H1175       H  0.18303814  0.68413677  0.91820266     0.17600
N1176       N  0.10808122  0.72867469  0.91746488    -0.89200
H1177       H  0.11891602  0.50696565  0.91669891     0.34900
H1178       H  0.12168138  0.51506354  0.94231831     0.40000
H1179       H  0.12058542  0.73811192  0.90319117     0.39700
H1180       H  0.12538699  0.74772026  0.92865017     0.34500
C1181       C  0.38438873  0.53180795  0.86384711    -0.27200
C1182       C  0.40005465  0.57646700  0.85628849    -0.15300
C1183       C  0.38944344  0.62020795  0.86645529     0.35400
C1184       C  0.36330737  0.61883140  0.88374609    -0.26600
C1185       C  0.34713318  0.57447148  0.89130077    -0.15900
C1186       C  0.35775106  0.53049134  0.88120214     0.36500
N1187       N  0.34252913  0.48449499  0.88876092    -0.90100
H1188       H  0.39242411  0.49797335  0.85614178     0.17600
H1189       H  0.35573493  0.65297135  0.89134414     0.17600
N1190       N  0.40614797  0.66620666  0.85958314    -0.89200
H1191       H  0.36907044  0.46277343  0.89213399     0.34900
H1192       H  0.32518018  0.46730510  0.87708385     0.40000
H1193       H  0.42375857  0.68188566  0.87153630     0.39700
H1194       H  0.38032752  0.68915344  0.85635482     0.34500
C1195       C  0.56647645  0.49379384  0.73779557    -0.27200
C1196       C  0.54639594  0.47387258  0.75516941    -0.15300
C1197       C  0.54925737  0.42277833  0.75851585     0.35400
C1198       C  0.57377018  0.39403254  0.74538952    -0.26600
C1199       C  0.59628640  0.41450224  0.72892284    -0.15900
C1200       C  0.59143360  0.46471823  0.72465536     0.36500
N1201       N  0.61397093  0.48665891  0.70785210    -0.90100
H1202       H  0.56366715  0.53256062  0.73472146     0.17600
H1203       H  0.57719755  0.35545518  0.74879916     0.17600
N1204       N  0.52793119  0.39864489  0.77506520    -0.89200
H1205       H  0.60831589  0.52429586  0.70733506     0.34900
H1206       H  0.60118279  0.47199581  0.69438537     0.40000
H1207       H  0.49515519  0.40583898  0.77416180     0.39700
H1208       H  0.54015573  0.41188295  0.78889213     0.34500
C1209       C  0.59108331  0.66558045  0.82877620    -0.27200
C1210       C  0.58325050  0.61494857  0.82843912    -0.15300
C1211       C  0.61825672  0.58268172  0.83036335     0.35400
C1212       C  0.66029668  0.60157489  0.83022174    -0.26600
C1213       C  0.66813569  0.65205532  0.82828390    -0.15900
C1214       C  0.63296376  0.68431858  0.82868199     0.36500
N1215       N  0.63946259  0.73620257  0.82830631    -0.90100
H1216       H  0.56465961  0.69101275  0.82773203     0.17600
H1217       H  0.68698494  0.57640941  0.83036893     0.17600
N1218       N  0.61112135  0.53081643  0.83168709    -0.89200
H1219       H  0.62474291  0.75116451  0.84120907     0.34900
H1220       H  0.62416788  0.75013596  0.81536890     0.40000
H1221       H  0.59455405  0.52414393  0.84527422     0.39700
H1222       H  0.64021168  0.51220916  0.83280629     0.34500
C1223       C  0.64047931  0.09736461  0.52226004    -0.27200
C1224       C  0.64158921  0.07038114  0.54049081    -0.15300
C1225       C  0.62310935  0.09031956  0.55833552     0.35400
C1226       C  0.60662785  0.13772770  0.55787555    -0.26600
C1227       C  0.60658303  0.16564388  0.53986364    -0.15900
C1228       C  0.62282310  0.14456027  0.52174577     0.36500
N1229       N  0.62164661  0.17070765  0.50282177    -0.90100
H1230       H  0.65446132  0.08241983  0.50845983     0.17600
H1231       H  0.59295759  0.15248218  0.57176597     0.17600
N1232       N  0.62115315  0.06240575  0.57694250    -0.89200
H1233       H  0.60405660  0.14987768  0.49231423     0.34900
H1234       H  0.65298826  0.17390553  0.49737117     0.40000
H1235       H  0.60125107  0.03221330  0.57425783     0.39700
H1236       H  0.60696916  0.08257180  0.58869768     0.34500
C1237       C  0.57828958  0.85869706  0.50713024    -0.27200
C1238       C  0.60266314  0.83652205  0.52264384    -0.15300
C1239       C  0.59843836  0.78517472  0.52549408     0.35400
C1240       C  0.57118741  0.75799682  0.51279401    -0.26600
C1241       C  0.54859498  0.77996658  0.49675662    -0.15900
C1242       C  0.55151017  0.83116793  0.49416747     0.36500
N1243       N  0.52716857  0.85523014  0.47848435    -0.90100
H1244       H  0.58095341  0.89773834  0.50464139     0.17600
H1245       H  0.56870199  0.71885750  0.51513543     0.17600
N1246       N  0.62198627  0.75891301  0.54069782    -0.89200
H1247       H  0.53353700  0.89278748  0.47841004     0.34900
H1248       H  0.49476802  0.85129120  0.48214452     0.40000
H1249       H  0.61590052  0.77437690  0.55502058     0.39700
H1250       H  0.65465397  0.76102558  0.53736064     0.34500
C1251       C  0.60900539  0.11682831  0.73059432    -0.27200
C1252       C  0.60902708  0.08894380  0.71250924    -0.15300
C1253       C  0.62631560  0.10929548  0.69452362     0.35400
C1254       C  0.64281927  0.15660011  0.69487928    -0.26600
C1255       C  0.64352238  0.18426832  0.71294071    -0.15900
C1256       C  0.62613664  0.16439573  0.73093996     0.36500
N1257       N  0.62677420  0.19169092  0.74963125    -0.90100
H1258       H  0.59501227  0.10206594  0.74442485     0.17600
H1259       H  0.65618430  0.17136564  0.68089066     0.17600
N1260       N  0.62785331  0.08192297  0.67584608    -0.89200
H1261       H  0.64382303  0.17156706  0.76047606     0.34900
H1262       H  0.59523191  0.19502249  0.75476361     0.40000
H1263       H  0.65981902  0.07968340  0.67121255     0.39700
H1264       H  0.61096198  0.10121763  0.66468067     0.34500
C1265       C  0.53632461  0.79360990  0.75844540    -0.27200
C1266       C  0.50378838  0.81203784  0.74579869    -0.15300
C1267       C  0.46863505  0.78203967  0.74068530     0.35400
C1268       C  0.46722162  0.73381926  0.74765305    -0.26600
C1269       C  0.50003358  0.71502017  0.75997857    -0.15900
C1270       C  0.53479132  0.74529028  0.76562647     0.36500
N1271       N  0.56849161  0.72671858  0.77839426    -0.90100
H1272       H  0.56397906  0.81620630  0.76198445     0.17600
H1273       H  0.43946006  0.71150819  0.74396810     0.17600
N1274       N  0.43410515  0.80057299  0.72856177    -0.89200
H1275       H  0.59185565  0.75359371  0.78087121     0.34900
H1276       H  0.58345818  0.69839119  0.77042030     0.40000
H1277       H  0.40589306  0.79741349  0.73705613     0.39700
H1278       H  0.43097006  0.77831732  0.71563969     0.34500
C1279       C  0.62829739  0.97204988  0.64185059    -0.27200
C1280       C  0.59547566  0.93744161  0.64416766    -0.15300
C1281       C  0.59038925  0.90036042  0.62941862     0.35400
C1282       C  0.61807434  0.89844973  0.61269928    -0.26600
C1283       C  0.65169025  0.93257032  0.61027849    -0.15900
C1284       C  0.65650500  0.97024540  0.62505178     0.36500
N1285       N  0.69022566  0.00592992  0.62329065    -0.90100
H1286       H  0.63255546  0.99981824  0.65347734     0.17600
H1287       H  0.61323140  0.86952299  0.60158159     0.17600
N1288       N  0.55718085  0.86422505  0.63103155    -0.89200
H1289       H  0.69068839  0.02903110  0.63603829     0.34900
H1290       H  0.68300148  0.02808719  0.61075813     0.40000
H1291       H  0.52774587  0.88218367  0.63188963     0.39700
H1292       H  0.56166690  0.84456807  0.64453542     0.34500
C1293       C  0.65017508  0.80258745  0.72847496    -0.27200
C1294       C  0.64925542  0.85327057  0.73237840    -0.15300
C1295       C  0.67626464  0.87243376  0.74781066     0.35400
C1296       C  0.70160429  0.84081665  0.75950707    -0.26600
C1297       C  0.70109843  0.79007716  0.75615106    -0.15900
C1298       C  0.67557300  0.77082953  0.74020394     0.36500
N1299       N  0.67455490  0.71906907  0.73630014    -0.90100
H1300       H  0.62958941  0.78717079  0.71676097     0.17600
H1301       H  0.72201298  0.85629336  0.77129799     0.17600
N1302       N  0.67763902  0.92384193  0.75202571    -0.89200
H1303       H  0.65443956  0.71097946  0.72394903     0.34900
H1304       H  0.66106204  0.70215618  0.74909406     0.40000
H1305       H  0.70923447  0.93590405  0.75024835     0.39700
H1306       H  0.66892213  0.92918993  0.76728601     0.34500
C1307       C  0.73129334  0.73434475  0.48286000    -0.27200
C1308       C  0.75122466  0.69589896  0.49337343    -0.15300
C1309       C  0.76699971  0.70454005  0.51329779     0.35400
C1310       C  0.76398096  0.75131696  0.52188896    -0.26600
C1311       C  0.74503404  0.79013475  0.51117358    -0.15900
C1312       C  0.72803295  0.78104196  0.49149485     0.36500
N1313       N  0.70719360  0.81884332  0.48013844    -0.90100
H1314       H  0.71892123  0.72867406  0.46754873     0.17600
H1315       H  0.77617163  0.75690317  0.53723467     0.17600
N1316       N  0.78656798  0.66627062  0.52489263    -0.89200
H1317       H  0.67588283  0.80736370  0.47697282     0.34900
H1318       H  0.72328928  0.82313275  0.46625485     0.40000
H1319       H  0.81767123  0.67735569  0.52864942     0.39700
H1320       H  0.76938878  0.66202025  0.53847687     0.34500
C1321       C  0.68154664  0.48156156  0.51165509    -0.27200
C1322       C  0.70339069  0.46005101  0.49521583    -0.15300
C1323       C  0.70051651  0.40895498  0.49233546     0.35400
C1324       C  0.67360868  0.38119005  0.50504582    -0.26600
C1325       C  0.64969116  0.40301635  0.52080266    -0.15900
C1326       C  0.65484629  0.45375559  0.52449987     0.36500
N1327       N  0.63223646  0.47726203  0.54090194    -0.90100
H1328       H  0.68468829  0.52055242  0.51427917     0.17600
H1329       H  0.67033637  0.34234956  0.50212539     0.17600
N1330       N  0.72504071  0.38528000  0.47660367    -0.89200
H1331       H  0.63890523  0.51475414  0.54122634     0.34900
H1332       H  0.64388027  0.46288892  0.55461222     0.40000
H1333       H  0.75742934  0.38927225  0.48038311     0.39700
H1334       H  0.71876716  0.34770258  0.47632882     0.34500
C1335       C  0.65904608  0.65260216  0.42247349    -0.27200
C1336       C  0.66604182  0.60196055  0.42292039    -0.15300
C1337       C  0.63051541  0.56992774  0.42118730     0.35400
C1338       C  0.58879832  0.58921874  0.42156959    -0.26600
C1339       C  0.58190897  0.63979715  0.42354758    -0.15900
C1340       C  0.61752205  0.67171570  0.42285003     0.36500
N1341       N  0.61187069  0.72366078  0.42331265    -0.90100
H1342       H  0.68589187  0.67778700  0.42330435     0.17600
H1343       H  0.56168733  0.56435419  0.42161433     0.17600
N1344       N  0.63681269  0.51797338  0.41981837    -0.89200
H1345       H  0.62635881  0.73838035  0.41029972     0.34900
H1346       H  0.62787099  0.73747497  0.43615164     0.40000
H1347       H  0.65294552  0.51100887  0.40613383     0.39700
H1348       H  0.60741877  0.49964561  0.41885522     0.34500
C1349       C  0.91765568  0.56189934  0.37694063    -0.27200
C1350       C  0.89784611  0.56464761  0.35774483    -0.15300
C1351       C  0.85257934  0.56302362  0.35649621     0.35400
C1352       C  0.82823517  0.55903120  0.37438119    -0.26600
C1353       C  0.84802910  0.55908279  0.39360396    -0.15900
C1354       C  0.89314496  0.56014699  0.39493984     0.36500
N1355       N  0.91376157  0.56022874  0.41460534    -0.90100
H1356       H  0.95229367  0.56311752  0.37791613     0.17600
H1357       H  0.79359382  0.55854534  0.37331360     0.17600
N1358       N  0.83048490  0.56565023  0.33731971    -0.89200
H1359       H  0.94705345  0.56153948  0.41296655     0.34900
H1360       H  0.90649913  0.52702381  0.42171667     0.40000
H1361       H  0.84216103  0.53825141  0.32770289     0.39700
H1362       H  0.83684851  0.59958497  0.33065362     0.34500
C1363       C  0.04623689  0.41991429  0.26043403    -0.27200
C1364       C  0.04725672  0.47083183  0.25772806    -0.15300
C1365       C  0.07354303  0.49067626  0.24234829     0.35400
C1366       C  0.09908183  0.45968670  0.23041579    -0.26600
C1367       C  0.09927422  0.40871982  0.23350712    -0.15900
C1368       C  0.07161795  0.38878032  0.24844364     0.36500
N1369       N  0.06944017  0.33706700  0.25174834    -0.90100
H1370       H  0.02529525  0.40401599  0.27184951     0.17600
H1371       H  0.12020142  0.47612000  0.21922045     0.17600
N1372       N  0.07571387  0.54247701  0.23929262    -0.89200
H1373       H  0.03775358  0.32574355  0.24949914     0.34900
H1374       H  0.07759186  0.33022525  0.26697596     0.40000
H1375       H  0.06723920  0.54971090  0.22413944     0.39700
H1376       H  0.10747601  0.55367738  0.24142371     0.34500
C1377       C  0.08840624  0.66545292  0.32961084    -0.27200
C1378       C  0.08031575  0.61492250  0.32945470    -0.15300
C1379       C  0.11499157  0.58236050  0.33199446     0.35400
C1380       C  0.15708237  0.60074738  0.33242282    -0.26600
C1381       C  0.16543381  0.65098074  0.33038743    -0.15900
C1382       C  0.13049433  0.68372281  0.33007516     0.36500
N1383       N  0.13750530  0.73552090  0.32951189    -0.90100
H1384       H  0.06216456  0.69097597  0.32803364     0.17600
H1385       H  0.18351751  0.57527919  0.33304639     0.17600
N1386       N  0.10751020  0.53054694  0.33331381    -0.89200
H1387       H  0.12188966  0.75112250  0.34203536     0.34900
H1388       H  0.12347255  0.74918082  0.31620349     0.40000
H1389       H  0.09012059  0.52411189  0.34668915     0.39700
H1390       H  0.13638502  0.51168684  0.33481631     0.34500
C1391       C  0.14582895  0.14316459  0.22951465    -0.27200
C1392       C  0.13843548  0.17605843  0.21345952    -0.15300
C1393       C  0.11211072  0.16197975  0.19700669     0.35400
C1394       C  0.09432190  0.11515147  0.19661981    -0.26600
C1395       C  0.10223918  0.08161039  0.21241848    -0.15900
C1396       C  0.12810572  0.09590133  0.22906693     0.36500
N1397       N  0.13755538  0.06223880  0.24516694    -0.90100
H1398       H  0.16691316  0.15340042  0.24199939     0.17600
H1399       H  0.07376818  0.10532097  0.18387974     0.17600
N1400       N  0.10317729  0.19530108  0.18068029    -0.89200
H1401       H  0.12737165  0.07771417  0.25893764     0.34900
H1402       H  0.17078549  0.05803789  0.24590600     0.40000
H1403       H  0.07001463  0.19998451  0.17983180     0.39700
H1404       H  0.11331744  0.17928309  0.16700530     0.34500
C1405       C  0.96655933  0.72123132  0.24404505    -0.27200
C1406       C  0.99453539  0.70719048  0.25974866    -0.15300
C1407       C  0.02516132  0.74086938  0.26727143     0.35400
C1408       C  0.02705059  0.78789378  0.25889695    -0.26600
C1409       C  0.99941625  0.80167719  0.24301131    -0.15900
C1410       C  0.96863256  0.76811732  0.23568183     0.36500
N1411       N  0.93923428  0.78158384  0.21984230    -0.90100
H1412       H  0.94188981  0.69630128  0.23866508     0.17600
H1413       H  0.05154340  0.81312347  0.26420317     0.17600
N1414       N  0.05431971  0.72717992  0.28328303    -0.89200
H1415       H  0.90809262  0.77720506  0.22542285     0.34900
H1416       H  0.94321035  0.75739526  0.20760346     0.40000
H1417       H  0.07463172  0.75634950  0.28702206     0.39700
H1418       H  0.07377826  0.69926029  0.27762164     0.34500
C1419       C  0.16197871  0.86458873  0.25275744    -0.27200
C1420       C  0.14621362  0.84677098  0.23403709    -0.15300
C1421       C  0.15733507  0.79886742  0.22794622     0.35400
C1422       C  0.18330867  0.76999806  0.24058544    -0.26600
C1423       C  0.19850015  0.78752726  0.25946065    -0.15900
C1424       C  0.18754872  0.83559411  0.26550565     0.36500
N1425       N  0.20209259  0.85541799  0.28459209    -0.90100
H1426       H  0.15320674  0.90080101  0.25799378     0.17600
H1427       H  0.19145993  0.73345522  0.23552948     0.17600
N1428       N  0.14220779  0.77904310  0.20897438    -0.89200
H1429       H  0.17525933  0.86521650  0.29318956     0.34900
H1430       H  0.21979763  0.88713396  0.28158502     0.40000
H1431       H  0.12457739  0.74736143  0.21214082     0.39700
H1432       H  0.16877932  0.76911066  0.20022331     0.34500
C1433       C  0.14212707  0.11378149  0.02021685    -0.27200
C1434       C  0.13992762  0.08384137  0.03760141    -0.15300
C1435       C  0.11741531  0.10022567  0.05495806     0.35400
C1436       C  0.09989536  0.14712983  0.05502853    -0.26600
C1437       C  0.10332852  0.17819061  0.03800442    -0.15900
C1438       C  0.12407048  0.16091430  0.02021013     0.36500
N1439       N  0.12734990  0.19121633  0.00235789    -0.90100
H1440       H  0.15952465  0.10120760  0.00690520     0.17600
H1441       H  0.08292201  0.15915241  0.06854815     0.17600
N1442       N  0.11248660  0.06916640  0.07252787    -0.89200
H1443       H  0.14268547  0.17251153  0.99051496     0.34900
H1444       H  0.14697047  0.22101713  0.00608850     0.40000
H1445       H  0.09413823  0.03891700  0.06806958     0.39700
H1446       H  0.09535476  0.08687204  0.08408824     0.34500
C1447       C  0.26892164  0.76918446  0.01725161    -0.27200
C1448       C  0.24321250  0.80397829  0.00730190    -0.15300
C1449       C  0.22120516  0.78989238  0.98924176     0.35400
C1450       C  0.22590440  0.74252183  0.98162210    -0.26600
C1451       C  0.25196896  0.70803800  0.99147473    -0.15900
C1452       C  0.27333117  0.72164039  0.00963361     0.36500
N1453       N  0.30026219  0.68783626  0.02026136    -0.90100
H1454       H  0.28557859  0.77862014  0.03127143     0.17600
H1455       H  0.20934948  0.73294301  0.96759010     0.17600
N1456       N  0.19336043  0.82217149  0.97834076    -0.89200
H1457       H  0.28868560  0.68411812  0.03516262     0.34900
H1458       H  0.33111843  0.70275794  0.02105606     0.40000
H1459       H  0.16827269  0.83259609  0.98792667     0.39700
H1460       H  0.21080498  0.85297976  0.97379541     0.34500
C1461       C  0.13319606  0.97864686  0.11482589    -0.27200
C1462       C  0.15470638  0.93640701  0.10849455    -0.15300
C1463       C  0.15096869  0.89340857  0.12031451     0.35400
C1464       C  0.12490829  0.89306665  0.13766103    -0.26600
C1465       C  0.10140404  0.93453283  0.14356198    -0.15900
C1466       C  0.10629566  0.97812643  0.13199898     0.36500
N1467       N  0.08490082  0.02257114  0.13730699    -0.90100
H1468       H  0.13620933  0.01190153  0.10597748     0.17600
H1469       H  0.12250285  0.85952204  0.14638212     0.17600
N1470       N  0.17397487  0.84974246  0.11532749    -0.89200
H1471       H  0.09294277  0.03191154  0.15233358     0.34900
H1472       H  0.05185805  0.01700198  0.13619809     0.40000
H1473       H  0.20654431  0.85837125  0.11424022     0.39700
H1474       H  0.16329928  0.83653762  0.10121815     0.34500
C1475       C  0.09742617  0.80239323  0.02090933    -0.27200
C1476       C  0.09836707  0.85340189  0.01795981    -0.15300
C1477       C  0.07134128  0.87397348  0.00285341     0.35400
C1478       C  0.04549652  0.84306577  0.99077801    -0.26600
C1479       C  0.04544056  0.79221835  0.99357513    -0.15900
C1480       C  0.07148612  0.77185719  0.00885910     0.36500
N1481       N  0.07305271  0.71994905  0.01164581    -0.90100
H1482       H  0.11832328  0.78556152  0.03206906     0.17600
H1483       H  0.02483320  0.85885414  0.97924526     0.17600
N1484       N  0.07068469  0.92590669  0.99948619    -0.89200
H1485       H  0.06463581  0.71229236  0.02676399     0.34900
H1486       H  0.10464841  0.70863435  0.00942223     0.40000
H1487       H  0.05815641  0.94220119  0.01263865     0.39700
H1488       H  0.04993497  0.93472193  0.98750795     0.34500
C1489       C  0.16404882  0.61987803  0.52597221    -0.27200
C1490       C  0.14016714  0.57686086  0.52908457    -0.15300
C1491       C  0.09566070  0.57959028  0.53207135     0.35400
C1492       C  0.07615979  0.62529122  0.53271139    -0.26600
C1493       C  0.10020481  0.66860983  0.53042195    -0.15900
C1494       C  0.14444224  0.66595231  0.52656955     0.36500
N1495       N  0.16947146  0.70979257  0.52415027    -0.90100
H1496       H  0.19835958  0.61747936  0.52370401     0.17600
H1497       H  0.04197863  0.62700936  0.53550949     0.17600
N1498       N  0.06995647  0.53688212  0.53551845    -0.89200
H1499       H  0.20150611  0.70125599  0.52128760     0.34900
H1500       H  0.16890714  0.72867339  0.53806282     0.40000
H1501       H  0.08222516  0.51821765  0.54815216     0.39700
H1502       H  0.07228009  0.51428275  0.52268419     0.34500
C1503       C  0.21023088  0.91380935  0.49683415    -0.27200
C1504       C  0.20703712  0.96477166  0.49914118    -0.15300
C1505       C  0.18045126  0.98356933  0.51480603     0.35400
C1506       C  0.15610353  0.95139154  0.52683026    -0.26600
C1507       C  0.15745306  0.90063579  0.52362737    -0.15900
C1508       C  0.18585684  0.88177985  0.50879756     0.36500
N1509       N  0.19058194  0.83023558  0.50554394    -0.90100
H1510       H  0.23158659  0.89862177  0.48544403     0.17600
H1511       H  0.13365081  0.96642581  0.53776440     0.17600
N1512       N  0.17553784  0.03503197  0.51811608    -0.89200
H1513       H  0.16159198  0.81551378  0.50040890     0.34900
H1514       H  0.19840901  0.81405436  0.51950853     0.40000
H1515       H  0.16612014  0.05124267  0.50437835     0.39700
H1516       H  0.20499074  0.04976320  0.52264065     0.34500
C1517       C  0.94105219  0.72389035  0.48788378    -0.27200
C1518       C  0.94272448  0.71749336  0.50923851    -0.15300
C1519       C  0.91989967  0.67827108  0.51798102     0.35400
C1520       C  0.89647740  0.64621669  0.50537957    -0.26600
C1521       C  0.89462737  0.65277684  0.48408315    -0.15900
C1522       C  0.91702426  0.69252572  0.47532611     0.36500
N1523       N  0.91700196  0.70121346  0.45373876    -0.90100
H1524       H  0.95886623  0.75343988  0.48081289     0.17600
H1525       H  0.87858822  0.61669789  0.51243079     0.17600
N1526       N  0.92134754  0.66989585  0.53956404    -0.89200
H1527       H  0.92682091  0.66927599  0.44632052     0.34900
H1528       H  0.88592885  0.70960595  0.44904346     0.40000
H1529       H  0.93353150  0.63484654  0.54202493     0.39700
H1530       H  0.89002649  0.67074151  0.54515355     0.34500
C1531       C  0.91417938  0.91444803  0.57948247    -0.27200
C1532       C  0.92395074  0.86445022  0.58048410    -0.15300
C1533       C  0.89036374  0.83078366  0.58424758     0.35400
C1534       C  0.84775268  0.84685058  0.58426280    -0.26600
C1535       C  0.83775739  0.89606788  0.58066980    -0.15900
C1536       C  0.87158564  0.93072684  0.57965506     0.36500
N1537       N  0.86270741  0.98210975  0.57787283    -0.90100
H1538       H  0.93973186  0.94088070  0.57744677     0.17600
H1539       H  0.82236581  0.81994086  0.58570863     0.17600
N1540       N  0.89894736  0.77980386  0.58698897    -0.89200
H1541       H  0.89108488  0.00239526  0.57683324     0.34900
H1542       H  0.84765134  0.99310285  0.59136893     0.40000
H1543       H  0.88274378  0.76027420  0.57557632     0.39700
H1544       H  0.88649718  0.76920975  0.60113157     0.34500
C1545       C  0.17357496  0.63425660  0.71800283    -0.27200
C1546       C  0.15013317  0.67732936  0.72161773    -0.15300
C1547       C  0.10628433  0.67370092  0.72671503     0.35400
C1548       C  0.08635166  0.62785766  0.72649133    -0.26600
C1549       C  0.10945569  0.58537877  0.72182840    -0.15900
C1550       C  0.15361669  0.58820665  0.71809288     0.36500
N1551       N  0.17752549  0.54469613  0.71357536    -0.90100
H1552       H  0.20745096  0.63665395  0.71453863     0.17600
H1553       H  0.05225243  0.62542534  0.72947273     0.17600
N1554       N  0.08080006  0.71575127  0.73128087    -0.89200
H1555       H  0.20982021  0.55319985  0.71120971     0.34900
H1556       H  0.16593877  0.53041236  0.69979136     0.40000
H1557       H  0.08244757  0.73996893  0.71896205     0.39700
H1558       H  0.09333036  0.73284547  0.74429103     0.34500
C1559       C  0.15907249  0.77253325  0.62944560    -0.27200
C1560       C  0.14659916  0.80435904  0.64519902    -0.15300
C1561       C  0.10811156  0.83076606  0.64327836     0.35400
C1562       C  0.08396048  0.82649928  0.62531870    -0.26600
C1563       C  0.09722867  0.79654289  0.60912611    -0.15900
C1564       C  0.13533697  0.76896310  0.61119045     0.36500
N1565       N  0.15215074  0.73917674  0.59495263    -0.90100
H1566       H  0.18869090  0.75231599  0.63087238     0.17600
H1567       H  0.05494762  0.84779643  0.62368692     0.17600
N1568       N  0.09383963  0.86215967  0.65954413    -0.89200
H1569       H  0.18162237  0.75417201  0.59063378     0.34900
H1570       H  0.13280464  0.73993071  0.58196269     0.40000
H1571       H  0.08690547  0.83998452  0.67211743     0.39700
H1572       H  0.06528319  0.87957220  0.65557372     0.34500
C1573       C  0.06763639  0.88882884  0.74577250    -0.27200
C1574       C  0.08979302  0.90701063  0.72877371    -0.15300
C1575       C  0.08460950  0.95640983  0.72323928     0.35400
C1576       C  0.05958704  0.98736240  0.73549214    -0.26600
C1577       C  0.04004315  0.96993621  0.75340359    -0.15900
C1578       C  0.04279091  0.91956902  0.75803525     0.36500
N1579       N  0.02058929  0.89929827  0.77522153    -0.90100
H1580       H  0.07144870  0.85090725  0.75020488     0.17600
H1581       H  0.05692138  0.02559951  0.73139681     0.17600
N1582       N  0.10709698  0.97613550  0.70605147    -0.89200
H1583       H  0.04312134  0.88314044  0.78488762     0.34900
H1584       H  0.99990934  0.87189600  0.76990425     0.40000
H1585       H  0.12702871  0.00436052  0.71126411     0.39700
H1586       H  0.08458553  0.99117606  0.69606576     0.34500
C1587       C  0.34851565  0.71498638  0.77268305    -0.27200
C1588       C  0.35688600  0.66714236  0.76589146    -0.15300
C1589       C  0.33965835  0.65159525  0.74690338     0.35400
C1590       C  0.31564905  0.68415880  0.73507243    -0.26600
C1591       C  0.30765077  0.73171334  0.74192764    -0.15900
C1592       C  0.32376070  0.74706698  0.76095176     0.36500
N1593       N  0.31553595  0.79554902  0.76822542    -0.90100
H1594       H  0.36177798  0.72796269  0.78702340     0.17600
H1595       H  0.30201640  0.67165884  0.72072112     0.17600
N1596       N  0.34685535  0.60313219  0.73932501    -0.89200
H1597       H  0.34497588  0.81302731  0.77060946     0.34900
H1598       H  0.30000185  0.79280969  0.78231960     0.40000
H1599       H  0.36226830  0.60585030  0.72519686     0.39700
H1600       H  0.31709069  0.58636253  0.73697202     0.34500
C1601       C  0.35794087  0.84641628  0.67070031    -0.27200
C1602       C  0.32548707  0.88067726  0.67458625    -0.15300
C1603       C  0.33706692  0.93051759  0.67700470     0.35400
C1604       C  0.38059395  0.94371814  0.67767719    -0.26600
C1605       C  0.41310367  0.90859771  0.67578991    -0.15900
C1606       C  0.40138061  0.85981571  0.67127791     0.36500
N1607       N  0.43329648  0.82312441  0.66813355    -0.90100
H1608       H  0.34986653  0.80821095  0.66843023     0.17600
H1609       H  0.38905935  0.98156038  0.68059297     0.17600
N1610       N  0.30484696  0.96739182  0.67966297    -0.89200
H1611       H  0.42848478  0.80783469  0.65364860     0.34900
H1612       H  0.42870734  0.79557431  0.67895979     0.40000
H1613       H  0.28736505  0.96932330  0.66605292     0.39700
H1614       H  0.31879486  0.00183203  0.68188552     0.34500
C1615       C  0.40030416  0.36792320  0.98000332    -0.27200
C1616       C  0.39098474  0.33315534  0.96482099    -0.15300
C1617       C  0.36177723  0.34444598  0.94919911     0.35400
C1618       C  0.34407095  0.39104979  0.94829028    -0.26600
C1619       C  0.35478438  0.42693777  0.96282962    -0.15900
C1620       C  0.38238609  0.41489507  0.97911667     0.36500
N1621       N  0.39352485  0.45058828  0.99428573    -0.90100
H1622       H  0.42325211  0.35952594  0.99192111     0.17600
H1623       H  0.32165057  0.39902683  0.93609456     0.17600
N1624       N  0.35029174  0.30857215  0.93412137    -0.89200
H1625       H  0.42678451  0.45513911  0.99414462     0.34900
H1626       H  0.38481687  0.43673312  0.00857259     0.40000
H1627       H  0.35819652  0.32242589  0.91972238     0.39700
H1628       H  0.31710775  0.30352230  0.93462783     0.34500
C1629       C  0.54750904  0.34160731  0.99232837    -0.27200
C1630       C  0.54959069  0.29049525  0.99402397    -0.15300
C1631       C  0.57756343  0.26978819  0.00860922     0.35400
C1632       C  0.60293978  0.30030541  0.02081884    -0.26600
C1633       C  0.60158887  0.35154457  0.01891046    -0.15900
C1634       C  0.57302299  0.37221152  0.00459810     0.36500
N1635       N  0.57010702  0.42414800  0.00218779    -0.90100
H1636       H  0.52564171  0.35806732  0.98148177     0.17600
H1637       H  0.62515819  0.28338943  0.03136081     0.17600
N1638       N  0.58247571  0.21797954  0.01078605    -0.89200
H1639       H  0.53839376  0.43443477  0.00485228     0.34900
H1640       H  0.57758107  0.43266393  0.98703424     0.40000
H1641       H  0.58995117  0.20303957  0.99651405     0.39700
H1642       H  0.55370709  0.20290361  0.01597559     0.34500
C1643       C  0.61552678  0.18776643  0.92189010    -0.27200
C1644       C  0.58175567  0.15353347  0.92133528    -0.15300
C1645       C  0.59197135  0.10351326  0.91836755     0.35400
C1646       C  0.63486525  0.08875104  0.91858626    -0.26600
C1647       C  0.66842133  0.12260692  0.92118566    -0.15900
C1648       C  0.65860992  0.17306197  0.92159294     0.36500
N1649       N  0.69209851  0.20918606  0.92299219    -0.90100
H1650       H  0.60837233  0.22631511  0.92348774     0.17600
H1651       H  0.64187067  0.05003371  0.91761636     0.17600
N1652       N  0.55986732  0.06643269  0.91579940    -0.89200
H1653       H  0.67929795  0.24431013  0.92430125     0.34900
H1654       H  0.70890459  0.20850427  0.90918938     0.40000
H1655       H  0.54087162  0.07547658  0.90321341     0.39700
H1656       H  0.54086342  0.06488647  0.92888245     0.34500
C1657       C  0.29826161  0.09206754  0.00934706    -0.27200
C1658       C  0.29767855  0.04125765  0.00626658    -0.15300
C1659       C  0.32307986  0.02105854  0.99056229     0.35400
C1660       C  0.34909249  0.05198163  0.97864989    -0.26600
C1661       C  0.35067787  0.10283328  0.98205759    -0.15900
C1662       C  0.32395808  0.12311510  0.99733925     0.36500
N1663       N  0.32328725  0.17501982  0.00088018    -0.90100
H1664       H  0.27797884  0.10781501  0.02103766     0.17600
H1665       H  0.36956133  0.03579970  0.96715110     0.17600
N1666       N  0.32330090  0.96911366  0.98708645    -0.89200
H1667       H  0.30266582  0.18371492  0.01291720     0.34900
H1668       H  0.31057321  0.19139871  0.98780399     0.40000
H1669       H  0.33619017  0.95262165  0.00010337     0.39700
H1670       H  0.34354544  0.96021184  0.97493599     0.34500
C1671       C  0.39884210  0.40209761  0.76864002    -0.27200
C1672       C  0.38974469  0.43665046  0.78391147    -0.15300
C1673       C  0.35949018  0.42552109  0.79905582     0.35400
C1674       C  0.34087918  0.37913023  0.79958503    -0.26600
C1675       C  0.35190972  0.34301730  0.78523023    -0.15900
C1676       C  0.38045531  0.35495777  0.76923546     0.36500
N1677       N  0.39177109  0.31902239  0.75414565    -0.90100
H1678       H  0.42221127  0.41088901  0.75697249     0.17600
H1679       H  0.31776642  0.37135093  0.81149618     0.17600
N1680       N  0.34781442  0.46131985  0.81405502    -0.89200
H1681       H  0.40836798  0.29113356  0.76160915     0.34900
H1682       H  0.41290964  0.33393481  0.74343575     0.40000
H1683       H  0.35441266  0.44698149  0.82851032     0.39700
H1684       H  0.31478731  0.46695365  0.81302544     0.34500
C1685       C  0.22729997  0.02218018  0.77072712    -0.27200
C1686       C  0.25634402  0.05393998  0.76096481    -0.15300
C1687       C  0.27823300  0.03748433  0.74344539     0.35400
C1688       C  0.27066104  0.99014714  0.73608876    -0.26600
C1689       C  0.24171746  0.95860258  0.74585227    -0.15900
C1690       C  0.21941396  0.97495480  0.76335624     0.36500
N1691       N  0.18705166  0.94618863  0.77342424    -0.90100
H1692       H  0.21013720  0.03420410  0.78420909     0.17600
H1693       H  0.28676820  0.97826998  0.72229198     0.17600
N1694       N  0.30846912  0.06829143  0.73314962    -0.89200
H1695       H  0.19769243  0.93936832  0.78829239     0.34900
H1696       H  0.18251044  0.91221697  0.76649701     0.40000
H1697       H  0.29845817  0.07220111  0.71799062     0.39700
H1698       H  0.33812559  0.05067621  0.73311462     0.34500
C1699       C  0.37479008  0.23830590  0.86196681    -0.27200
C1700       C  0.34156115  0.20423730  0.85957434    -0.15300
C1701       C  0.33312638  0.17034982  0.87510608     0.35400
C1702       C  0.35948262  0.16904680  0.89239715    -0.26600
C1703       C  0.39471290  0.20103813  0.89446089    -0.15900
C1704       C  0.40138566  0.23717334  0.87932488     0.36500
N1705       N  0.43551950  0.27203984  0.88119665    -0.90100
H1706       H  0.38118700  0.26457945  0.84996054     0.17600
H1707       H  0.35276987  0.14189246  0.90400496     0.17600
N1708       N  0.29814523  0.13657237  0.87313738    -0.89200
H1709       H  0.42221705  0.30705147  0.88092469     0.34900
H1710       H  0.45542056  0.26845236  0.86845354     0.40000
H1711       H  0.27771025  0.14165076  0.88559511     0.39700
H1712       H  0.31040598  0.10111409  0.87393384     0.34500
C1713       C  0.20830458  0.34179006  0.75671095    -0.27200
C1714       C  0.20907669  0.29137254  0.75270015    -0.15300
C1715       C  0.18784829  0.27326431  0.73516415     0.35400
C1716       C  0.16381551  0.30529523  0.72287748    -0.26600
C1717       C  0.16061539  0.35510263  0.72788993    -0.15900
C1718       C  0.18455883  0.37359257  0.74449882     0.36500
N1719       N  0.18336296  0.42462635  0.74951190    -0.90100
H1720       H  0.22580446  0.35676835  0.76962341     0.17600
H1721       H  0.14491579  0.29042995  0.71040558     0.17600
N1722       N  0.18874100  0.22217695  0.73035828    -0.89200
H1723       H  0.21472895  0.43815111  0.74925793     0.34900
H1724       H  0.17173653  0.42816970  0.76441641     0.40000
H1725       H  0.20123623  0.21825120  0.71563739     0.39700
H1726       H  0.15721371  0.20913752  0.73020368     0.34500
C1727       C  0.15973545  0.10218471  0.82567742    -0.27200
C1728       C  0.16684338  0.15287112  0.82638339    -0.15300
C1729       C  0.13138933  0.18437550  0.82861611     0.35400
C1730       C  0.08961337  0.16475637  0.82819687    -0.26600
C1731       C  0.08242920  0.11430502  0.82552686    -0.15900
C1732       C  0.11811665  0.08271981  0.82507954     0.36500
N1733       N  0.11247060  0.03087495  0.82325533    -0.90100
H1734       H  0.18657321  0.07745205  0.82416178     0.17600
H1735       H  0.06258678  0.18940862  0.82881859     0.17600
N1736       N  0.13784541  0.23624832  0.83064880    -0.89200
H1737       H  0.12750264  0.01433223  0.83572253     0.34900
H1738       H  0.12794161  0.01927644  0.80994790     0.40000
H1739       H  0.15424080  0.24232099  0.84436574     0.39700
H1740       H  0.10850429  0.25429072  0.83191253     0.34500
C1741       C  0.43780831  0.02952902  0.76338512    -0.27200
C1742       C  0.45802633  0.04962881  0.74616382    -0.15300
C1743       C  0.45320832  0.10005564  0.74227149     0.35400
C1744       C  0.42675050  0.12850529  0.75489957    -0.26600
C1745       C  0.40451584  0.10781880  0.77150491    -0.15900
C1746       C  0.41118178  0.05784334  0.77596364     0.36500
N1747       N  0.39025129  0.03508827  0.79294536    -0.90100
H1748       H  0.44184201  0.99112222  0.76691161     0.17600
H1749       H  0.42246559  0.16674316  0.75114074     0.17600
N1750       N  0.47534342  0.12279697  0.72562509    -0.89200
H1751       H  0.41375474  0.02046585  0.80251410     0.34900
H1752       H  0.37147401  0.00622700  0.78737211     0.40000
H1753       H  0.49476277  0.15066994  0.73156369     0.39700
H1754       H  0.45259579  0.13876796  0.71601887     0.34500
C1755       C  0.64155250  0.65045616  0.23221066    -0.27200
C1756       C  0.63624804  0.68122717  0.21523196    -0.15300
C1757       C  0.61055127  0.66567937  0.19878883     0.35400
C1758       C  0.59283958  0.61886310  0.19894630    -0.26600
C1759       C  0.59975341  0.58675341  0.21537112    -0.15900
C1760       C  0.62347435  0.60328135  0.23241511     0.36500
N1761       N  0.63035459  0.57206987  0.24963555    -0.90100
H1762       H  0.66142616  0.66209535  0.24493066     0.17600
H1763       H  0.57342397  0.60778504  0.18598188     0.17600
N1764       N  0.60244947  0.69733068  0.18179646    -0.89200
H1765       H  0.61831854  0.58964594  0.26260091     0.34900
H1766       H  0.66336961  0.56786349  0.25158944     0.40000
H1767       H  0.56934572  0.70200464  0.18050802     0.39700
H1768       H  0.61318553  0.67989710  0.16853557     0.34500
C1769       C  0.56787584  0.99120524  0.24177103    -0.27200
C1770       C  0.54661413  0.97030222  0.25853477    -0.15300
C1771       C  0.55192416  0.91960921  0.26229393     0.35400
C1772       C  0.57862564  0.89189683  0.24971655    -0.26600
C1773       C  0.60109513  0.91296114  0.23334277    -0.15900
C1774       C  0.59500548  0.96334469  0.22916202     0.36500
N1775       N  0.61690717  0.98650427  0.21244374    -0.90100
H1776       H  0.56365443  0.02974472  0.23857194     0.17600
H1777       H  0.58279147  0.85354802  0.25330665     0.17600
N1778       N  0.53036334  0.89465686  0.27856686    -0.89200
H1779       H  0.60995106  0.02384457  0.21191408     0.34900
H1780       H  0.60490402  0.97125936  0.19892207     0.40000
H1781       H  0.49735987  0.89970819  0.27698392     0.39700
H1782       H  0.54076612  0.90899277  0.29254094     0.34500
C1783       C  0.84902966  0.70942264  0.27068453    -0.27200
C1784       C  0.84964220  0.65842186  0.26766045    -0.15300
C1785       C  0.82347958  0.63828538  0.25206096     0.35400
C1786       C  0.79770213  0.66905140  0.24005148    -0.26600
C1787       C  0.79731668  0.71990118  0.24315367    -0.15900
C1788       C  0.82361939  0.74008584  0.25855258     0.36500
N1789       N  0.82583925  0.79196037  0.26149743    -0.90100
H1790       H  0.86963554  0.72617362  0.28207528     0.17600
H1791       H  0.77745682  0.65285809  0.22836768     0.17600
N1792       N  0.82314153  0.58674105  0.24813037    -0.89200
H1793       H  0.85761834  0.80306257  0.25940569     0.34900
H1794       H  0.81732117  0.79959245  0.27661182     0.40000
H1795       H  0.83245665  0.58115186  0.23296638     0.39700
H1796       H  0.79170152  0.57401733  0.24972572     0.34500
C1797       C  0.90802080  0.84137318  0.17159149    -0.27200
C1798       C  0.91665061  0.89183017  0.17218006    -0.15300
C1799       C  0.88219199  0.92485951  0.17073883     0.35400
C1800       C  0.84006183  0.90726593  0.17082735    -0.26600
C1801       C  0.83124722  0.85706152  0.17250190    -0.15900
C1802       C  0.86565729  0.82356185  0.17174151     0.36500
N1803       N  0.85764225  0.77174896  0.17200562    -0.90100
H1804       H  0.93427868  0.81568266  0.17236561     0.17600
H1805       H  0.81419480  0.93354481  0.17097691     0.17600
N1806       N  0.88966483  0.97656677  0.17002730    -0.89200
H1807       H  0.88639460  0.75232181  0.17174878     0.34900
H1808       H  0.84133901  0.76283272  0.15852553     0.40000
H1809       H  0.87445347  0.99256083  0.18258498     0.39700
H1810       H  0.87546218  0.99014475  0.15673593     0.34500
C1811       C  0.60287148  0.64914334  0.02105092    -0.27200
C1812       C  0.61026269  0.68262289  0.03696576    -0.15300
C1813       C  0.63646679  0.66938757  0.05358047     0.35400
C1814       C  0.65349804  0.62226476  0.05432093    -0.26600
C1815       C  0.64520695  0.58802035  0.03874997    -0.15900
C1816       C  0.62008998  0.60186583  0.02182871     0.36500
N1817       N  0.61090098  0.56774257  0.00576067    -0.90100
H1818       H  0.58211122  0.65893485  0.00842984     0.17600
H1819       H  0.67381419  0.61249226  0.06709985     0.17600
N1820       N  0.64537119  0.70381787  0.06971840    -0.89200
H1821       H  0.62174815  0.58278619  0.99202757     0.34900
H1822       H  0.57766573  0.56356541  0.00474967     0.40000
H1823       H  0.66267840  0.73287836  0.06338390     0.39700
H1824       H  0.66495871  0.68821384  0.08088605     0.34500
C1825       C  0.46862009  0.03721986  0.00389148    -0.27200
C1826       C  0.49884537  0.05505822  0.98990365    -0.15300
C1827       C  0.53309425  0.02502276  0.98382753     0.35400
C1828       C  0.53639491  0.97765498  0.99178231    -0.26600
C1829       C  0.50608084  0.95988493  0.00579219    -0.15900
C1830       C  0.47188365  0.99000925  0.01182059     0.36500
N1831       N  0.44021589  0.97265249  0.02590652    -0.90100
H1832       H  0.44139946  0.05941303  0.00821730     0.17600
H1833       H  0.56372112  0.95547686  0.98760101     0.17600
N1834       N  0.56507597  0.04282879  0.97001217    -0.89200
H1835       H  0.41025365  0.97475277  0.01881845     0.34900
H1836       H  0.44007647  0.99612828  0.03853729     0.40000
H1837       H  0.56645399  0.01878519  0.95759400     0.39700
H1838       H  0.59469225  0.04164356  0.97746919     0.34500
C1839       C  0.62055997  0.86912499  0.11357224    -0.27200
C1840       C  0.59915731  0.82656199  0.10694800    -0.15300
C1841       C  0.60404684  0.78294417  0.11837037     0.35400
C1842       C  0.63003511  0.78321570  0.13602911    -0.26600
C1843       C  0.65029512  0.82619082  0.14277402    -0.15900
C1844       C  0.64601892  0.86939008  0.13126611     0.36500
N1845       N  0.66820909  0.91323499  0.13742028    -0.90100
H1846       H  0.61743085  0.90262221  0.10489711     0.17600
H1847       H  0.63367904  0.75005224  0.14486376     0.17600
N1848       N  0.58353896  0.73835858  0.11188721    -0.89200
H1849       H  0.66178815  0.94182558  0.12730261     0.34900
H1850       H  0.70106082  0.90638619  0.13641623     0.40000
H1851       H  0.55065635  0.74243273  0.11425771     0.39700
H1852       H  0.59300580  0.70918024  0.12112787     0.34500
C1853       C  0.67318482  0.89521201  0.99982028    -0.27200
C1854       C  0.65256565  0.91440182  0.01714870    -0.15300
C1855       C  0.65988119  0.96402887  0.02231687     0.35400
C1856       C  0.68550461  0.99355317  0.00972468    -0.26600
C1857       C  0.70424272  0.97495472  0.99186330    -0.15900
C1858       C  0.69879227  0.92482678  0.98722200     0.36500
N1859       N  0.71946170  0.90353047  0.96983763    -0.90100
H1860       H  0.66825535  0.85732357  0.99550734     0.17600
H1861       H  0.69014695  0.03161668  0.01384669     0.17600
N1862       N  0.64078757  0.98513943  0.04014199    -0.89200
H1863       H  0.69588835  0.88829862  0.96038085     0.34900
H1864       H  0.73917169  0.87527734  0.97496933     0.40000
H1865       H  0.62167503  0.01440450  0.03551089     0.39700
H1866       H  0.66528674  0.99896108  0.04943867     0.34500
C1867       C  0.41625940  0.64599244  0.99881011    -0.27200
C1868       C  0.39931395  0.66385877  0.98040963    -0.15300
C1869       C  0.41044507  0.71172161  0.97426295     0.35400
C1870       C  0.43779048  0.74044348  0.98656221    -0.26600
C1871       C  0.45377079  0.72299467  0.00530714    -0.15900
C1872       C  0.44249810  0.67474892  0.01134541     0.36500
N1873       N  0.45676789  0.65345625  0.03013118    -0.90100
H1874       H  0.40757958  0.60976375  0.00410873     0.17600
H1875       H  0.44598403  0.77699109  0.98148561     0.17600
N1876       N  0.39382992  0.73164657  0.95566289    -0.89200
H1877       H  0.44504854  0.67406508  0.04234583     0.34900
H1878       H  0.49025741  0.65317598  0.03037601     0.40000
H1879       H  0.41969386  0.74161863  0.94641564     0.39700
H1880       H  0.37678254  0.76332424  0.95926899     0.34500
C1881       C  0.34129999  0.85049429  0.07688003    -0.27200
C1882       C  0.33312743  0.90090979  0.07597953    -0.15300
C1883       C  0.36803877  0.93389614  0.07669159     0.35400
C1884       C  0.41004865  0.91607170  0.07644580    -0.26600
C1885       C  0.41821857  0.86569798  0.07535390    -0.15900
C1886       C  0.38339355  0.83248173  0.07655749     0.36500
N1887       N  0.39069873  0.78059702  0.07664444    -0.90100
H1888       H  0.31478253  0.82481139  0.07659468     0.17600
H1889       H  0.43629142  0.94209247  0.07583209     0.17600
N1890       N  0.36112900  0.98564967  0.07696180    -0.89200
H1891       H  0.36171208  0.76135321  0.07716608     0.34900
H1892       H  0.40716935  0.77226413  0.09010610     0.40000
H1893       H  0.37594453  0.00074334  0.06410474     0.39700
H1894       H  0.37605568  0.00006105  0.08996997     0.34500
C1895       C  0.85252309  0.36430704  0.30709912    -0.27200
C1896       C  0.85375560  0.33421832  0.28969920    -0.15300
C1897       C  0.87275057  0.35221430  0.27162623     0.35400
C1898       C  0.89116149  0.39910972  0.27154550    -0.26600
C1899       C  0.89079014  0.42829705  0.28919731    -0.15900
C1900       C  0.87034812  0.41098709  0.30696082     0.36500
N1901       N  0.86740208  0.44076658  0.32496265    -0.90100
H1902       H  0.83709593  0.35202086  0.32100616     0.17600
H1903       H  0.90708493  0.41195461  0.25785356     0.17600
N1904       N  0.87396898  0.32305191  0.25343553    -0.89200
H1905       H  0.88225630  0.42229026  0.33699628     0.34900
H1906       H  0.83502395  0.44481919  0.32860949     0.40000
H1907       H  0.90599786  0.31869488  0.24920087     0.39700
H1908       H  0.85841656  0.34225292  0.24181264     0.34500
C1909       C  0.77680108  0.99026956  0.23480404    -0.27200
C1910       C  0.74711822  0.95723024  0.24310933    -0.15300
C1911       C  0.72090012  0.97234898  0.25950995     0.35400
C1912       C  0.72508163  0.01968768  0.26728799    -0.26600
C1913       C  0.75481791  0.05266558  0.25902892    -0.15900
C1914       C  0.78100394  0.03765956  0.24262387     0.36500
N1915       N  0.81282505  0.06968199  0.23421673    -0.90100
H1916       H  0.79673411  0.97942619  0.22203873     0.17600
H1917       H  0.70509374  0.03050870  0.28004184     0.17600
N1918       N  0.68902495  0.94047203  0.26798220    -0.89200
H1919       H  0.80633141  0.07405176  0.21865294     0.34900
H1920       H  0.84259886  0.05267258  0.23559360     0.40000
H1921       H  0.65920352  0.95734144  0.26649400     0.39700
H1922       H  0.69542334  0.93636784  0.28356952     0.34500
C1923       C  0.69077905  0.27645600  0.23847226    -0.27200
C1924       C  0.70336714  0.29165123  0.25816344    -0.15300
C1925       C  0.69066317  0.33880122  0.26497396     0.35400
C1926       C  0.66521639  0.36808816  0.25248259    -0.26600
C1927       C  0.65095001  0.35195338  0.23327855    -0.15900
C1928       C  0.66475235  0.30594641  0.22598894     0.36500
N1929       N  0.65187657  0.28897347  0.20608921    -0.90100
H1930       H  0.70085544  0.24108611  0.23281111     0.17600
H1931       H  0.65475418  0.40306622  0.25843142     0.17600
N1932       N  0.70248935  0.35835269  0.28452854    -0.89200
H1933       H  0.66444497  0.25431530  0.20311568     0.34900
H1934       H  0.66528018  0.31269338  0.19531569     0.40000
H1935       H  0.73587474  0.35986847  0.28559314     0.39700
H1936       H  0.68994422  0.33595533  0.29599516     0.34500
C1937       C  0.65770225  0.09508187  0.32897060    -0.27200
C1938       C  0.66593873  0.14555125  0.32880175    -0.15300
C1939       C  0.63120885  0.17821994  0.33111496     0.35400
C1940       C  0.58900107  0.15984864  0.33133683    -0.26600
C1941       C  0.58063794  0.10951963  0.32941466    -0.15900
C1942       C  0.61563006  0.07684626  0.32925715     0.36500
N1943       N  0.60874785  0.02502668  0.32862416    -0.90100
H1944       H  0.68390178  0.06944777  0.32755708     0.17600
H1945       H  0.56253121  0.18529427  0.33180755     0.17600
N1946       N  0.63876381  0.23001991  0.33253393    -0.89200
H1947       H  0.62406105  0.00958987  0.34126103     0.34900
H1948       H  0.62321435  0.01132640  0.31540723     0.40000
H1949       H  0.65591535  0.23646212  0.34601597     0.39700
H1950       H  0.60987830  0.24891912  0.33391503     0.34500
C1951       C  0.91467197  0.11627136  0.24980706    -0.27200
C1952       C  0.89882160  0.09911834  0.26861424    -0.15300
C1953       C  0.90973849  0.05117704  0.27470902     0.35400
C1954       C  0.93511963  0.02159292  0.26195890    -0.26600
C1955       C  0.95005892  0.03833441  0.24292251    -0.15900
C1956       C  0.93975057  0.08655996  0.23697901     0.36500
N1957       N  0.95471324  0.10590112  0.21794900    -0.90100
H1958       H  0.90629432  0.15253852  0.24455421     0.17600
H1959       H  0.94296100  0.98502599  0.26704248     0.17600
N1960       N  0.89504259  0.03203711  0.29381927    -0.89200
H1961       H  0.97299042  0.13719405  0.22103074     0.34900
H1962       H  0.92808326  0.11633225  0.20931956     0.40000
H1963       H  0.92181233  0.02207415  0.30244709     0.39700
H1964       H  0.87707956  0.00044369  0.29084641     0.34500
C1965       C  0.84617630  0.38177879  0.44701508    -0.27200
C1966       C  0.85168872  0.41412541  0.46352763    -0.15300
C1967       C  0.87403834  0.39806473  0.48102479     0.35400
C1968       C  0.89163268  0.35085999  0.48132045    -0.26600
C1969       C  0.88736375  0.31965778  0.46437976    -0.15900
C1970       C  0.86359626  0.33504123  0.44730727     0.36500
N1971       N  0.85711274  0.30328558  0.43012225    -0.90100
H1972       H  0.82796855  0.39251265  0.43365910     0.17600
H1973       H  0.91033197  0.33949654  0.49443098     0.17600
N1974       N  0.87993568  0.42972573  0.49826181    -0.89200
H1975       H  0.86973042  0.32035447  0.41716368     0.34900
H1976       H  0.82414062  0.29894535  0.42792225     0.40000
H1977       H  0.91282991  0.43394439  0.50075216     0.39700
H1978       H  0.86679165  0.41251881  0.51106605     0.34500
C1979       C  0.98263824  0.03274332  0.51122940    -0.27200
C1980       C  0.98594017  0.03640338  0.48999661    -0.15300
C1981       C  0.99122599  0.99312589  0.47817199     0.35400
C1982       C  0.99858505  0.94853936  0.48807163    -0.26600
C1983       C  0.99845775  0.94597051  0.50935335    -0.15900
C1984       C  0.98795516  0.98788117  0.52094528     0.36500
N1985       N  0.98294435  0.98508128  0.54267802    -0.90100
H1986       H  0.97607767  0.06485461  0.52042299     0.17600
H1987       H  0.00560877  0.91609270  0.47917177     0.17600
N1988       N  0.98833100  0.99416316  0.45625130    -0.89200
H1989       H  0.95207277  0.99686365  0.54630811     0.34900
H1990       H  0.00483053  0.00923063  0.54945438     0.40000
H1991       H  0.95665326  0.00255080  0.45249625     0.39700
H1992       H  0.99426778  0.95959934  0.45003448     0.34500
C1993       C  0.91687072  0.19616095  0.37545561    -0.27200
C1994       C  0.89720467  0.18997053  0.39450989    -0.15300
C1995       C  0.85189841  0.18809825  0.39569950     0.35400
C1996       C  0.82748906  0.19100098  0.37782282    -0.26600
C1997       C  0.84740746  0.19300877  0.35870776    -0.15900
C1998       C  0.89229309  0.19666025  0.35750720     0.36500
N1999       N  0.91291312  0.20040661  0.33803419    -0.90100
H2000       H  0.95147603  0.19798821  0.37440083     0.17600
H2001       H  0.79289417  0.18851091  0.37877960     0.17600
N2002       N  0.82983355  0.18229508  0.41474489    -0.89200
H2003       H  0.93403698  0.17106347  0.33657174     0.34900
H2004       H  0.93089518  0.23274876  0.33788288     0.40000
H2005       H  0.84067012  0.20902298  0.42494643     0.39700
H2006       H  0.83698752  0.14794050  0.42076594     0.34500
C2007       C  0.03466291  0.33094421  0.49402631    -0.27200
C2008       C  0.03610984  0.28052381  0.49805617    -0.15300
C2009       C  0.05800396  0.26419352  0.51562074     0.35400
C2010       C  0.08053337  0.29792232  0.52789051    -0.26600
C2011       C  0.08199071  0.34771680  0.52277516    -0.15900
C2012       C  0.05711792  0.36464148  0.50624112     0.36500
N2013       N  0.05643708  0.41589723  0.50141284    -0.90100
H2014       H  0.01635101  0.34417455  0.48110506     0.17600
H2015       H  0.10013796  0.28439796  0.54031688     0.17600
N2016       N  0.05954452  0.21318661  0.52042485    -0.89200
H2017       H  0.04186193  0.43384426  0.51366573     0.34900
H2018       H  0.03729473  0.42234768  0.48858384     0.40000
H2019       H  0.04725895  0.20850920  0.53514679     0.39700
H2020       H  0.09164097  0.20246708  0.52057349     0.34500
C2021       C  0.11385896  0.17035910  0.42449819    -0.27200
C2022       C  0.07972702  0.13679584  0.42556466    -0.15300
C2023       C  0.08901390  0.08630954  0.42535792     0.35400
C2024       C  0.13173325  0.07060225  0.42563339    -0.26600
C2025       C  0.16583522  0.10421585  0.42615934    -0.15900
C2026       C  0.15660712  0.15466624  0.42473664     0.36500
N2027       N  0.19029592  0.19040362  0.42458294    -0.90100
H2028       H  0.10744219  0.20927613  0.42443266     0.17600
H2029       H  0.13810181  0.03173243  0.42647503     0.17600
N2030       N  0.05539259  0.05064979  0.42624850    -0.89200
H2031       H  0.18589865  0.21394490  0.43699607     0.34900
H2032       H  0.18738838  0.21099589  0.41121610     0.40000
H2033       H  0.06019902  0.02948490  0.43932622     0.39700
H2034       H  0.05820699  0.02773177  0.41351967     0.34500
C2035       C  0.84603887  0.03795150  0.47972299    -0.27200
C2036       C  0.84534949  0.08916196  0.48197522    -0.15300
C2037       C  0.81832002  0.10967616  0.49702802     0.35400
C2038       C  0.79423203  0.07901141  0.50984202    -0.26600
C2039       C  0.79602694  0.02795950  0.50792123    -0.15900
C2040       C  0.82186895  0.00738820  0.49253874     0.36500
N2041       N  0.82504196  0.95538964  0.49038355    -0.90100
H2042       H  0.86700479  0.02113607  0.46858367     0.17600
H2043       H  0.77366060  0.09537584  0.52127335     0.17600
N2044       N  0.81550657  0.16159168  0.49961481    -0.89200
H2045       H  0.85715111  0.94567654  0.49227366     0.34900
H2046       H  0.81587100  0.94609276  0.47549566     0.40000
H2047       H  0.82455145  0.17011672  0.51460031     0.39700
H2048       H  0.78350776  0.17172541  0.49770064     0.34500
loop_ 
_geom_bond_atom_site_label_1 
_geom_bond_atom_site_label_2 
_geom_bond_distance 
_geom_bond_site_symmetry_2 
_ccdc_geom_bond_type 
O1           C16   1.259       .  A
O1           Al9   1.890       .  S
C2           O12   1.262       .  A
C2            O3   1.269       .  A
C2         C2022   1.487       .  S
O3           Al5   1.942   1_455  S
O4            C6   1.256       .  A
O4           Al5   1.862       .  S
Al5          O13   1.873       .  S
Al5          O15   1.933       .  S
Al5          O14   1.769       .  S
C6           O19   1.272       .  A
C6         C1980   1.475       .  S
O7           C17   1.260   1_655  A
O7           Al9   1.898       .  S
O8           C21   1.259       .  A
O8          Al18   1.862       .  S
Al9          O22   1.943       .  S
Al9          O19   1.943       .  S
Al9          O14   1.773       .  S
O10          C17   1.266       .  A
O10         Al18   1.926   1_455  S
O11          C20   1.268       .  A
O11         Al18   1.943       .  S
O12         Al18   1.887   1_455  S
O13          C20   1.256       .  A
O14         Al18   1.771       .  S
O15          C16   1.266       .  A
C16        C2036   1.489       .  S
C17        C2008   1.484       .  S
C20        C1994   1.471       .  S
C21          O22   1.270       .  A
C21        C1969   1.468       .  S
O23          C38   1.263       .  A
O23         Al31   1.905       .  S
C24          O34   1.259       .  A
C24          O25   1.270       .  A
C24        C1938   1.488       .  S
O25         Al27   1.949       .  S
O26          C28   1.260       .  A
O26         Al27   1.870       .  S
Al27         O35   1.889       .  S
Al27         O37   1.934       .  S
Al27         O36   1.771       .  S
C28          O41   1.266       .  A
C28        C1913   1.469       .  S
O29          C39   1.262       .  A
O29         Al31   1.901       .  S
O30          C43   1.261       .  A
O30         Al40   1.866       .  S
Al31         O44   1.927       .  S
Al31         O41   1.920       .  S
Al31         O36   1.779       .  S
O32          C39   1.260       .  A
O32         Al40   1.911       .  S
O33          C42   1.265       .  A
O33         Al40   1.933       .  S
O34         Al40   1.882       .  S
O35          C42   1.260       .  A
O36         Al40   1.774       .  S
O37          C38   1.265       .  A
C38        C1952   1.498       .  S
C39        C1924   1.492       .  S
C42        C1997   1.468       .  S
C43          O44   1.267       .  A
C43        C1896   1.476       .  S
O45          C60   1.268       .  A
O45         Al53   1.937       .  S
C46          O56   1.267       .  A
C46          O47   1.258       .  A
C46        C1885   1.485       .  S
O47         Al49   1.879       .  S
O48          C50   1.264       .  A
O48         Al49   1.921       .  S
Al49         O57   1.940       .  S
Al49         O59   1.863       .  S
Al49         O58   1.771       .  S
C50          O63   1.262       .  A
C50        C1871   1.494       .  S
O51          C61   1.267       .  A
O51         Al53   1.933       .  S
O52          C65   1.264       .  A
O52         Al62   1.921       .  S
Al53         O66   1.902       .  S
Al53         O63   1.903       .  S
Al53         O58   1.783       .  S
O54          C61   1.258       .  A
O54         Al62   1.871       .  S
O55          C64   1.261       .  A
O55         Al62   1.886       .  S
O56         Al62   1.935       .  S
O57          C64   1.267       .  A
O58         Al62   1.772       .  S
O59          C60   1.258       .  A
C60        C1812   1.468       .  S
C61        C1829   1.469       .  S
C64        C1840   1.491       .  S
C65          O66   1.263       .  A
C65        C1854   1.491       .  S
O67          C82   1.266       .  A
O67         Al75   1.930       .  S
C68          O78   1.266       .  A
C68          O69   1.259       .  A
C68        C1801   1.485       .  S
O69         Al71   1.883       .  S
O70          C72   1.267       .  A
O70         Al71   1.939       .  S
Al71         O79   1.939       .  S
Al71         O81   1.869       .  S
Al71         O80   1.774       .  S
C72          O85   1.261       .  A
C72        C1787   1.486       .  S
O73          C83   1.263       .  A
O73         Al75   1.913       .  S
O74          C87   1.265       .  A
O74         Al84   1.928       .  S
Al75         O88   1.899       .  S
Al75         O85   1.894       .  S
Al75         O80   1.779       .  S
O76          C83   1.258       .  A
O76         Al84   1.879       .  S
O77          C86   1.259       .  A
O77         Al84   1.883       .  S
O78         Al84   1.926       .  S
O79          C86   1.267       .  A
O80         Al84   1.777       .  S
O81          C82   1.259       .  A
C82        C1756   1.470       .  S
C83        C1910   1.472       .  S
C86        C1843   1.479       .  S
C87          O88   1.265       .  A
C87        C1773   1.493       .  S
O89         C104   1.260       .  A
O89         Al97   1.893       .  S
C90         O100   1.260       .  A
C90          O91   1.267       .  A
C90        C1728   1.485       .  S
O91         Al93   1.936       .  S
O92          C94   1.257       .  A
O92         Al93   1.867       .  S
Al93        O101   1.879       .  S
Al93        O103   1.936       .  S
Al93        O102   1.774       .  S
C94         O107   1.270       .  A
C94        C1686   1.478       .  S
O95         C105   1.260       .  A
O95         Al97   1.895       .  S
O96         C109   1.261       .  A
O96        Al106   1.871       .  S
Al97        O110   1.942       .  S
Al97        O107   1.942       .  S
Al97        O102   1.779       .  S
O98         C105   1.265       .  A
O98        Al106   1.921       .  S
O99         C108   1.266       .  A
O99        Al106   1.937       .  S
O100       Al106   1.889       .  S
O101        C108   1.259       .  A
O102       Al106   1.773       .  S
O103        C104   1.266       .  A
C104       C1745   1.493       .  S
C105       C1714   1.481       .  S
C108       C1700   1.465       .  S
C109        O110   1.269       .  A
C109       C1675   1.479       .  S
O111        C126   1.261       .  A
O111       Al119   1.894       .  S
C112        O122   1.261       .  A
C112        O113   1.267       .  A
C112       C1644   1.493       .  S
O113       Al115   1.940       .  S
O114        C116   1.259       .  A
O114       Al115   1.880       .  S
Al115       O123   1.880       .  S
Al115       O125   1.935       .  S
Al115       O124   1.772       .  S
C116        O129   1.268       .  A
C116       C1826   1.468       .  S
O117        C127   1.257       .  A
O117       Al119   1.883       .  S
O118        C131   1.258       .  A
O118       Al128   1.862       .  S
Al119       O132   1.938       .  S
Al119       O129   1.929       .  S
Al119       O124   1.773       .  S
O120        C127   1.265       .  A
O120       Al128   1.930       .  S
O121        C130   1.268       .  A
O121       Al128   1.939       .  S
O122       Al128   1.886       .  S
O123        C130   1.260       .  A
O124       Al128   1.772       .  S
O125        C126   1.267       .  A
C126       C1661   1.494       .  S
C127       C1630   1.479       .  S
C130       C1703   1.488       .  S
C131        O132   1.267       .  A
C131       C1616   1.464       .  S
O133        C148   1.264       .  A
O133       Al141   1.902       .  S
C134        O144   1.256       .  A
C134        O135   1.263       .  A
C134       C1602   1.491       .  S
O135       Al137   1.915       .  S
O136        C138   1.258       .  A
O136       Al137   1.898       .  S
Al137       O145   1.902       .  S
Al137       O147   1.894       .  S
Al137       O146   1.800       .  S
C138        O151   1.253       .  A
C138       C1591   1.466       .  S
O139        C149   1.264       .  A
O139       Al141   1.913       .  S
O140        C153   1.261       .  A
O140       Al150   1.906       .  S
Al141       O154   1.880       .  S
Al141       O151   1.881       .  S
Al141       O146   1.793       .  S
O142        C149   1.255       .  A
O142       Al150   1.875       .  S
O143        C152   1.257       .  A
O143       Al150   1.891       .  S
O144       Al150   1.880       .  S
O145        C152   1.257       .  A
O146       Al150   1.795       .  S
O147        C148   1.262       .  A
C148       C1546   1.477       .  S
C149       C1689   1.462       .  S
C152       C1560   1.478       .  S
C153        O154   1.256       .  A
C153       C1574   1.473       .  S
O155        C170   1.267       .  A
O155       Al163   1.909       .  S
C156        O166   1.260       .  A
C156        O157   1.259       .  A
C156       C1532   1.488       .  S
O157       Al159   1.900   1_655  S
O158        C160   1.262       .  A
O158       Al159   1.920   1_655  S
Al159       O167   1.915       .  S
Al159       O169   1.880       .  S
Al159       O168   1.795       .  S
C160        O173   1.253   1_655  A
C160       C1518   1.486       .  S
O161        C171   1.267       .  A
O161       Al163   1.916       .  S
O162        C175   1.264       .  A
O162       Al172   1.920       .  S
Al163       O176   1.884       .  S
Al163       O173   1.880       .  S
Al163       O168   1.791       .  S
O164        C171   1.254       .  A
O164       Al172   1.860       .  S
O165        C174   1.254       .  A
O165       Al172   1.874       .  S
O166       Al172   1.892   1_655  S
O167        C174   1.260       .  A
O168       Al172   1.794       .  S
O169        C170   1.260       .  A
C170       C1493   1.470       .  S
C171       C1983   1.466   1_455  S
C174       C1563   1.474       .  S
C175        O176   1.255       .  A
C175       C1507   1.477       .  S
O177        C192   1.269       .  A
O177       Al185   1.943   1_545  S
C178        O188   1.267       .  A
C178        O179   1.258       .  A
C178       C1882   1.485       .  S
O179       Al181   1.879       .  S
O180        C182   1.268       .  A
O180       Al181   1.940   1_545  S
Al181       O189   1.949       .  S
Al181       O191   1.867   1_565  S
Al181       O190   1.773       .  S
C182        O195   1.260   1_545  A
C182       C1658   1.486       .  S
O183        C193   1.266       .  A
O183       Al185   1.936       .  S
O184        C197   1.267       .  A
O184       Al194   1.928       .  S
Al185       O198   1.892       .  S
Al185       O195   1.892       .  S
Al185       O190   1.778       .  S
O186        C193   1.257       .  A
O186       Al194   1.870       .  S
O187        C196   1.257       .  A
O187       Al194   1.875       .  S
O188       Al194   1.933       .  S
O189        C196   1.269       .  A
O190       Al194   1.774       .  S
O191        C192   1.259       .  A
C192       C1434   1.477       .  S
C193       C1448   1.483       .  S
C196       C1462   1.478       .  S
C197        O198   1.261       .  A
C197       C1476   1.490       .  S
O199        C214   1.268       .  A
O199       Al207   1.935   1_545  S
C200        O210   1.266       .  A
C200        O201   1.258       .  A
C200       C1798   1.483       .  S
O201       Al203   1.874   1_655  S
O202        C204   1.267       .  A
O202       Al203   1.941   1_645  S
Al203       O211   1.943       .  S
Al203       O213   1.862   1_565  S
Al203       O212   1.770       .  S
C204        O217   1.261   1_545  A
C204       C1955   1.498       .  S
O205        C215   1.268       .  A
O205       Al207   1.927       .  S
O206        C219   1.263       .  A
O206       Al216   1.922       .  S
Al207       O220   1.900       .  S
Al207       O217   1.898   1_455  S
Al207       O212   1.777       .  S
O208        C215   1.258       .  A
O208       Al216   1.871       .  S
O209        C218   1.261       .  A
O209       Al216   1.887       .  S
O210       Al216   1.935   1_655  S
O211        C218   1.269       .  A
O212       Al216   1.777       .  S
O213        C214   1.258       .  A
C214       C1395   1.474       .  S
C215       C1409   1.468   1_455  S
C218       C1465   1.492       .  S
C219        O220   1.263       .  A
C219       C1420   1.488       .  S
O221        C236   1.260       .  A
O221       Al229   1.898       .  S
C222        O232   1.259       .  A
C222        O223   1.269       .  A
C222       C1378   1.485       .  S
O223       Al225   1.945   1_455  S
O224        C226   1.258       .  A
O224       Al225   1.866       .  S
Al225       O233   1.887       .  S
Al225       O235   1.928       .  S
Al225       O234   1.771       .  S
C226        O239   1.269       .  A
C226       C1406   1.468       .  S
O227        C237   1.259       .  A
O227       Al229   1.893   1_455  S
O228        C241   1.257       .  A
O228       Al238   1.852       .  S
Al229       O242   1.938       .  S
Al229       O239   1.928       .  S
Al229       O234   1.776       .  S
O230        C237   1.264       .  A
O230       Al238   1.931   1_455  S
O231        C240   1.268       .  A
O231       Al238   1.944       .  S
O232       Al238   1.878   1_455  S
O233        C240   1.259       .  A
O234       Al238   1.772       .  S
O235        C236   1.265       .  A
C236       C1784   1.494       .  S
C237       C1364   1.482       .  S
C240       C1350   1.477       .  S
C241        O242   1.270       .  A
C241       C1899   1.468       .  S
O243        C258   1.262       .  A
O243       Al251   1.898       .  S
C244        O254   1.259       .  A
C244        O245   1.267       .  A
C244       C1336   1.485       .  S
O245       Al247   1.935       .  S
O246        C248   1.263       .  A
O246       Al247   1.883       .  S
Al247       O255   1.883       .  S
Al247       O257   1.923       .  S
Al247       O256   1.773       .  S
C248        O261   1.267       .  A
C248       C1308   1.481       .  S
O249        C259   1.258       .  A
O249       Al251   1.884       .  S
O250        C263   1.260       .  A
O250       Al260   1.868       .  S
Al251       O264   1.935       .  S
Al251       O261   1.925       .  S
Al251       O256   1.776       .  S
O252        C259   1.266       .  A
O252       Al260   1.934       .  S
O253        C262   1.269       .  A
O253       Al260   1.949       .  S
O254       Al260   1.886       .  S
O255        C262   1.260       .  A
O256       Al260   1.774       .  S
O257        C258   1.262       .  A
C258       C1521   1.481       .  S
C259       C1322   1.483       .  S
C262       C1353   1.474       .  S
C263        O264   1.267       .  A
C263       C1966   1.479       .  S
O265        C280   1.267       .  A
O265       Al273   1.935   1_545  S
C266        O276   1.265       .  A
C266        O267   1.259       .  A
C266       C1605   1.490       .  S
O267       Al269   1.884       .  S
O268        C270   1.268       .  A
O268       Al269   1.942   1_545  S
Al269       O277   1.945       .  S
Al269       O279   1.860   1_565  S
Al269       O278   1.771       .  S
C270        O283   1.261   1_545  A
C270       C1742   1.488       .  S
O271        C281   1.267       .  A
O271       Al273   1.935       .  S
O272        C285   1.266       .  A
O272       Al282   1.928       .  S
Al273       O286   1.899       .  S
Al273       O283   1.891       .  S
Al273       O278   1.779       .  S
O274        C281   1.258       .  A
O274       Al282   1.876       .  S
O275        C284   1.257       .  A
O275       Al282   1.875       .  S
O276       Al282   1.931       .  S
O277        C284   1.269       .  A
O278       Al282   1.773       .  S
O279        C280   1.256       .  A
C280       C1252   1.473       .  S
C281       C1266   1.470       .  S
C284       C1280   1.472       .  S
C285        O286   1.263       .  A
C285       C1294   1.491       .  S
O287        C302   1.268       .  A
O287       Al295   1.945   1_545  S
C288        O298   1.269       .  A
C288        O289   1.256       .  A
C288       C1535   1.488       .  S
O289       Al291   1.869       .  S
O290        C292   1.268   1_545  A
O290       Al291   1.939   1_545  S
Al291       O299   1.944       .  S
Al291       O301   1.860   1_565  S
Al291       O300   1.772       .  S
C292        O305   1.259       .  A
C292       C2039   1.481   1_565  S
O293        C303   1.266       .  A
O293       Al295   1.927       .  S
O294        C307   1.264       .  A
O294       Al304   1.927       .  S
Al295       O308   1.893       .  S
Al295       O305   1.889       .  S
Al295       O300   1.776       .  S
O296        C303   1.261       .  A
O296       Al304   1.884       .  S
O297        C306   1.259       .  A
O297       Al304   1.879       .  S
O298       Al304   1.944       .  S
O299        C306   1.268       .  A
O300       Al304   1.775       .  S
O301        C302   1.256       .  A
C302       C1224   1.478       .  S
C303       C1311   1.483       .  S
C306       C1283   1.494       .  S
C307        O308   1.263       .  A
C307       C1238   1.492       .  S
O309        C324   1.259       .  A
O309       Al317   1.885       .  S
C310        O320   1.262       .  A
C310        O311   1.266       .  A
C310       C1210   1.487       .  S
O311       Al313   1.929       .  S
O312        C314   1.257       .  A
O312       Al313   1.878       .  S
Al313       O321   1.875       .  S
Al313       O323   1.930       .  S
Al313       O322   1.773       .  S
C314        O327   1.268       .  A
C314       C1269   1.468       .  S
O315        C325   1.260       .  A
O315       Al317   1.885       .  S
O316        C329   1.260       .  A
O316       Al326   1.873       .  S
Al317       O330   1.937       .  S
Al317       O327   1.934       .  S
Al317       O322   1.776       .  S
O318        C325   1.267       .  A
O318       Al326   1.933       .  S
O319        C328   1.269       .  A
O319       Al326   1.944       .  S
O320       Al326   1.894       .  S
O321        C328   1.259       .  A
O322       Al326   1.769       .  S
O323        C324   1.266       .  A
C324       C1588   1.483       .  S
C325       C1196   1.487       .  S
C328       C1182   1.477       .  S
C329        O330   1.267       .  A
C329       C1672   1.468       .  S
O331        C346   1.263       .  A
O331       Al339   1.893       .  S
C332        O342   1.258       .  A
C332        O333   1.267       .  A
C332       C1171   1.489       .  S
O333       Al335   1.933       .  S
O334        C336   1.258       .  A
O334       Al335   1.874       .  S
Al335       O343   1.873       .  S
Al335       O345   1.937       .  S
Al335       O344   1.774       .  S
C336        O349   1.267       .  A
C336       C1451   1.479       .  S
O337        C347   1.262       .  A
O337       Al339   1.888       .  S
O338        C351   1.260       .  A
O338       Al348   1.871       .  S
Al339       O352   1.930       .  S
Al339       O349   1.932       .  S
Al339       O344   1.774       .  S
O340        C347   1.265       .  A
O340       Al348   1.928       .  S
O341        C350   1.268       .  A
O341       Al348   1.941       .  S
O342       Al348   1.882       .  S
O343        C350   1.259       .  A
O344       Al348   1.774       .  S
O345        C346   1.266       .  A
C346       C1868   1.490       .  S
C347       C1157   1.482       .  S
C350       C1185   1.481       .  S
C351        O352   1.266       .  A
C351       C1619   1.473       .  S
O353        C368   1.266       .  A
O353       Al361   1.930       .  S
C354        O364   1.266       .  A
C354        O355   1.257       .  A
C354       C1140   1.488       .  S
O355       Al357   1.882       .  S
O356        C358   1.268       .  A
O356       Al357   1.938       .  S
Al357       O365   1.955       .  S
Al357       O367   1.871       .  S
Al357       O366   1.772       .  S
C358        O371   1.262       .  A
C358       C1129   1.494       .  S
O359        C369   1.267       .  A
O359       Al361   1.933       .  S
O360        C373   1.266       .  A
O360       Al370   1.924       .  S
Al361       O374   1.894       .  S
Al361       O371   1.889       .  S
Al361       O366   1.778       .  S
O362        C369   1.259       .  A
O362       Al370   1.882       .  S
O363        C372   1.257       .  A
O363       Al370   1.874       .  S
O364       Al370   1.931       .  S
O365        C372   1.271       .  A
O366       Al370   1.772       .  S
O367        C368   1.259       .  A
C368       C1815   1.476       .  S
C369       C1101   1.472       .  S
C372       C1112   1.493       .  S
C373        O374   1.262       .  A
C373       C1633   1.486       .  S
O375        C390   1.268       .  A
O375       Al383   1.942       .  S
C376        O386   1.265       .  A
C376        O377   1.257       .  A
C376       C1087   1.483       .  S
O377       Al379   1.881       .  S
O378        C380   1.268       .  A
O378       Al379   1.935       .  S
Al379       O387   1.944       .  S
Al379       O389   1.860       .  S
Al379       O388   1.771       .  S
C380        O393   1.261       .  A
C380       C1073   1.490       .  S
O381        C391   1.269       .  A
O381       Al383   1.939       .  S
O382        C395   1.264       .  A
O382       Al392   1.924       .  S
Al383       O396   1.898       .  S
Al383       O393   1.899       .  S
Al383       O388   1.780       .  S
O384        C391   1.258       .  A
O384       Al392   1.875       .  S
O385        C394   1.260       .  A
O385       Al392   1.880       .  S
O386       Al392   1.929       .  S
O387        C394   1.268       .  A
O388       Al392   1.776       .  S
O389        C390   1.257       .  A
C390       C1759   1.479       .  S
C391       C1059   1.472       .  S
C394       C1115   1.480       .  S
C395        O396   1.263       .  A
C395       C1927   1.486       .  S
O397        C412   1.261       .  A
O397       Al405   1.892       .  S
C398        O408   1.262       .  A
C398        O399   1.264       .  A
C398       C2025   1.486       .  S
O399       Al401   1.927       .  S
O400        C402   1.255       .  A
O400       Al401   1.858       .  S
Al401       O409   1.863       .  S
Al401       O411   1.918       .  S
Al401       O410   1.769       .  S
C402        O415   1.272       .  A
C402       C1017   1.473       .  S
O403        C413   1.260   1_545  A
O403       Al405   1.894       .  S
O404        C417   1.260       .  A
O404       Al414   1.866   1_565  S
Al405       O418   1.952   1_545  S
Al405       O415   1.959       .  S
Al405       O410   1.778       .  S
O406        C413   1.268       .  A
O406       Al414   1.938   1_565  S
O407        C416   1.270       .  A
O407       Al414   1.954       .  S
O408       Al414   1.894       .  S
O409        C416   1.257       .  A
O410       Al414   1.768       .  S
O411        C412   1.263       .  A
C412       C1042   1.483       .  S
C413       C1504   1.486       .  S
C416       C1031   1.473       .  S
C417        O418   1.271       .  A
C417       C1000   1.484       .  S
O419        C434   1.262       .  A
O419       Al427   1.895       .  S
C420        O430   1.257       .  A
C420        O421   1.268       .  A
C420       C1941   1.490       .  S
O421       Al423   1.941       .  S
O422        C424   1.257       .  A
O422       Al423   1.876       .  S
Al423       O431   1.881       .  S
Al423       O433   1.932       .  S
Al423       O432   1.774       .  S
C424        O437   1.268       .  A
C424       C1056   1.468       .  S
O425        C435   1.263       .  A
O425       Al427   1.900       .  S
O426        C439   1.258       .  A
O426       Al436   1.865   1_565  S
Al427       O440   1.939   1_545  S
Al427       O437   1.936       .  S
Al427       O432   1.779       .  S
O428        C435   1.264   1_565  A
O428       Al436   1.919   1_565  S
O429        C438   1.266       .  A
O429       Al436   1.935       .  S
O430       Al436   1.877       .  S
O431        C438   1.260       .  A
O432       Al436   1.771       .  S
O433        C434   1.266       .  A
C434        C989   1.489       .  S
C435       C1770   1.488   1_545  S
C438       C1028   1.486       .  S
C439        O440   1.267       .  A
C439        C975   1.472       .  S
O441        C456   1.262       .  A
O441       Al449   1.903       .  S
C442        O452   1.257       .  A
C442        O443   1.261       .  A
C442        C961   1.486       .  S
O443       Al445   1.908   1_655  S
O444        C446   1.263       .  A
O444       Al445   1.912   1_655  S
Al445       O453   1.923       .  S
Al445       O455   1.888       .  S
Al445       O454   1.799       .  S
C446        O459   1.255   1_655  A
C446        C944   1.477       .  S
O447        C457   1.263       .  A
O447       Al449   1.913       .  S
O448        C461   1.265       .  A
O448       Al458   1.921       .  S
Al449       O462   1.871       .  S
Al449       O459   1.885       .  S
Al449       O454   1.793       .  S
O450        C457   1.252       .  A
O450       Al458   1.860       .  S
O451        C460   1.257       .  A
O451       Al458   1.885       .  S
O452       Al458   1.891   1_655  S
O453        C460   1.262       .  A
O454       Al458   1.795       .  S
O455        C456   1.258       .  A
C456       C1549   1.463       .  S
C457        C919   1.455       .  S
C460        C930   1.490       .  S
C461        O462   1.256       .  A
C461       C1717   1.475       .  S
O463        C478   1.264       .  A
O463       Al471   1.900       .  S
C464        O474   1.260       .  A
C464        O465   1.263       .  A
C464        C902   1.496       .  S
O465       Al467   1.919       .  S
O466        C468   1.258       .  A
O466       Al467   1.897       .  S
Al467       O475   1.916       .  S
Al467       O477   1.896       .  S
Al467       O476   1.792       .  S
C468        O481   1.256       .  A
C468        C888   1.478       .  S
O469        C479   1.266       .  A
O469       Al471   1.918       .  S
O470        C483   1.266       .  A
O470       Al480   1.919       .  S
Al471       O484   1.884       .  S
Al471       O481   1.898       .  S
Al471       O476   1.790       .  S
O472        C479   1.254       .  A
O472       Al480   1.868       .  S
O473        C482   1.258       .  A
O473       Al480   1.891       .  S
O474       Al480   1.892       .  S
O475        C482   1.259       .  A
O476       Al480   1.789       .  S
O477        C478   1.261       .  A
C478       C1490   1.464       .  S
C479       C1014   1.455       .  S
C482        C933   1.488       .  S
C483        O484   1.258       .  A
C483       C2011   1.476       .  S
O485        C500   1.260       .  A
O485       Al493   1.888       .  S
C486        O496   1.260       .  A
C486        O487   1.267       .  A
C486       C1731   1.490       .  S
O487       Al489   1.936   1_455  S
O488        C490   1.256       .  A
O488       Al489   1.862       .  S
Al489       O497   1.873       .  S
Al489       O499   1.934       .  S
Al489       O498   1.772       .  S
C490        O503   1.272       .  A
C490        C916   1.476       .  S
O491        C501   1.261       .  A
O491       Al493   1.895   1_455  S
O492        C505   1.260       .  A
O492       Al502   1.866   1_565  S
Al493       O506   1.947       .  S
Al493       O503   1.953       .  S
Al493       O498   1.779       .  S
O494        C501   1.265   1_565  A
O494       Al502   1.920   1_465  S
O495        C504   1.268       .  A
O495       Al502   1.940       .  S
O496       Al502   1.889   1_455  S
O497        C504   1.259       .  A
O498       Al502   1.768       .  S
O499        C500   1.266       .  A
C500        C877   1.484       .  S
C501       C1577   1.483   1_545  S
C504        C860   1.469       .  S
C505        O506   1.270   1_565  A
C505        C846   1.477       .  S
O507        C522   1.262       .  A
O507       Al515   1.898       .  S
C508        O518   1.261       .  A
C508        O509   1.265       .  A
C508       C1647   1.489       .  S
O509       Al511   1.930       .  S
O510        C512   1.258       .  A
O510       Al511   1.874       .  S
Al511       O519   1.872       .  S
Al511       O521   1.923       .  S
Al511       O520   1.772       .  S
C512        O525   1.270       .  A
C512       C1098   1.472       .  S
O513        C523   1.261       .  A
O513       Al515   1.891       .  S
O514        C527   1.259       .  A
O514       Al524   1.868   1_565  S
Al515       O528   1.942       .  S
Al515       O525   1.941       .  S
Al515       O520   1.776       .  S
O516        C523   1.266   1_565  A
O516       Al524   1.930   1_565  S
O517        C526   1.270       .  A
O517       Al524   1.946       .  S
O518       Al524   1.894       .  S
O519        C526   1.258       .  A
O520       Al524   1.774       .  S
O521        C522   1.263       .  A
C522        C835   1.487       .  S
C523       C1857   1.487   1_545  S
C526        C863   1.485       .  S
C527        O528   1.269   1_565  A
C527        C818   1.477       .  S
O529        C544   1.262       .  A
O529       Al537   1.898       .  S
C530        O540   1.260       .  A
C530        O531   1.266       .  A
C530       C1168   1.482       .  S
O531       Al533   1.931   1_455  S
O532        C534   1.258       .  A
O532       Al533   1.865       .  S
Al533       O541   1.874       .  S
Al533       O543   1.926       .  S
Al533       O542   1.772       .  S
C534        O547   1.269       .  A
C534        C790   1.477       .  S
O535        C545   1.259   1_655  A
O535       Al537   1.890       .  S
O536        C549   1.260       .  A
O536       Al546   1.870       .  S
Al537       O550   1.944       .  S
Al537       O547   1.940       .  S
Al537       O542   1.775       .  S
O538        C545   1.264       .  A
O538       Al546   1.925   1_455  S
O539        C548   1.266       .  A
O539       Al546   1.934       .  S
O540       Al546   1.888   1_455  S
O541        C548   1.260       .  A
O542       Al546   1.773       .  S
O543        C544   1.264       .  A
C544       C1126   1.489       .  S
C545       C1479   1.477       .  S
C548        C804   1.481       .  S
C549        O550   1.270       .  A
C549        C821   1.485       .  S
O551        C566   1.261       .  A
O551       Al559   1.889       .  S
C552        O562   1.260       .  A
C552        O553   1.267       .  A
C552       C1213   1.489       .  S
O553       Al555   1.936       .  S
O554        C556   1.254       .  A
O554       Al555   1.862       .  S
Al555       O563   1.865       .  S
Al555       O565   1.943       .  S
Al555       O564   1.771       .  S
C556        O569   1.268       .  A
C556        C776   1.475       .  S
O557        C567   1.262       .  A
O557       Al559   1.892       .  S
O558        C571   1.260       .  A
O558       Al568   1.873       .  S
Al559       O572   1.938       .  S
Al559       O569   1.942       .  S
Al559       O564   1.776       .  S
O560        C567   1.268       .  A
O560       Al568   1.932       .  S
O561        C570   1.267       .  A
O561       Al568   1.938       .  S
O562       Al568   1.888       .  S
O563        C570   1.256       .  A
O564       Al568   1.769       .  S
O565        C566   1.268       .  A
C566        C947   1.487       .  S
C567       C1297   1.483       .  S
C570        C807   1.467       .  S
C571        O572   1.267       .  A
C571        C849   1.468       .  S
O573        C588   1.268       .  A
O573       Al581   1.941       .  S
C574        O584   1.266       .  A
C574        O575   1.259       .  A
C574       C1143   1.485       .  S
O575       Al577   1.882   1_655  S
O576        C578   1.265       .  A
O576       Al577   1.923   1_655  S
Al577       O585   1.932       .  S
Al577       O587   1.870       .  S
Al577       O586   1.771       .  S
C578        O591   1.261       .  A
C578        C832   1.487       .  S
O579        C589   1.267       .  A
O579       Al581   1.938       .  S
O580        C593   1.262       .  A
O580       Al590   1.915       .  S
Al581       O594   1.899       .  S
Al581       O591   1.894   1_455  S
Al581       O586   1.781       .  S
O582        C589   1.258       .  A
O582       Al590   1.868       .  S
O583        C592   1.257       .  A
O583       Al590   1.876       .  S
O584       Al590   1.931   1_655  S
O585        C592   1.266       .  A
O586       Al590   1.774       .  S
O587        C588   1.260       .  A
C588       C1437   1.485       .  S
C589        C793   1.478       .  S
C592        C765   1.467       .  S
C593        O594   1.263       .  A
C593       C1154   1.491       .  S
O595        C610   1.267       .  A
O595       Al603   1.935       .  S
C596        O606   1.266       .  A
C596        O597   1.258       .  A
C596       C1084   1.484       .  S
O597       Al599   1.880       .  S
O598        C600   1.267       .  A
O598       Al599   1.933       .  S
Al599       O607   1.941       .  S
Al599       O609   1.867       .  S
Al599       O608   1.773       .  S
C600        O613   1.261       .  A
C600        C986   1.488       .  S
O601        C611   1.268       .  A
O601       Al603   1.933       .  S
O602        C615   1.265       .  A
O602       Al612   1.924       .  S
Al603       O616   1.898       .  S
Al603       O613   1.890       .  S
Al603       O608   1.777       .  S
O604        C611   1.260       .  A
O604       Al612   1.881       .  S
O605        C614   1.260       .  A
O605       Al612   1.876       .  S
O606       Al612   1.931       .  S
O607        C614   1.267       .  A
O608       Al612   1.771       .  S
O609        C610   1.258       .  A
C610       C1392   1.467       .  S
C611        C748   1.475       .  S
C614        C762   1.491       .  S
C615        O616   1.262       .  A
C615       C1367   1.490       .  S
O617        C632   1.262       .  A
O617       Al625   1.893       .  S
C618        O628   1.259       .  A
C618        O619   1.270       .  A
C618       C1381   1.487       .  S
O619       Al621   1.942       .  S
O620        C622   1.257       .  A
O620       Al621   1.879       .  S
Al621       O629   1.886       .  S
Al621       O631   1.940       .  S
Al621       O630   1.774       .  S
C622        O635   1.267       .  A
C622        C751   1.475       .  S
O623        C633   1.264       .  A
O623       Al625   1.901       .  S
O624        C637   1.260       .  A
O624       Al634   1.874       .  S
Al625       O638   1.938       .  S
Al625       O635   1.933       .  S
Al625       O630   1.776       .  S
O626        C633   1.264       .  A
O626       Al634   1.923       .  S
O627        C636   1.263       .  A
O627       Al634   1.930       .  S
O628       Al634   1.877       .  S
O629        C636   1.257       .  A
O630       Al634   1.775       .  S
O631        C632   1.269       .  A
C632       C1070   1.495       .  S
C633       C1423   1.490       .  S
C636        C734   1.466       .  S
C637        O638   1.267       .  A
C637        C972   1.466       .  S
O639        C654   1.261       .  A
O639       Al647   1.892       .  S
C640        O650   1.260       .  A
C640        O641   1.266       .  A
C640       C1339   1.486       .  S
O641       Al643   1.934       .  S
O642        C644   1.259       .  A
O642       Al643   1.876       .  S
Al643       O651   1.878       .  S
Al643       O653   1.922       .  S
Al643       O652   1.776       .  S
C644        O657   1.269       .  A
C644        C720   1.476       .  S
O645        C655   1.260       .  A
O645       Al647   1.890       .  S
O646        C659   1.259       .  A
O646       Al656   1.868       .  S
Al647       O660   1.945       .  S
Al647       O657   1.937       .  S
Al647       O652   1.777       .  S
O648        C655   1.265       .  A
O648       Al656   1.926       .  S
O649        C658   1.268       .  A
O649       Al656   1.939       .  S
O650       Al656   1.885       .  S
O651        C658   1.259       .  A
O652       Al656   1.773       .  S
O653        C654   1.263       .  A
C654        C891   1.479       .  S
C655       C1241   1.483       .  S
C658        C737   1.486       .  S
C659        O660   1.269       .  A
C659       C1003   1.475       .  S
O661        C676   1.264       .  A
O661       Al669   1.907       .  S
C662        O672   1.258       .  A
C662        O663   1.260       .  A
C662        C958   1.490       .  S
O663       Al665   1.909       .  S
O664        C666   1.262       .  A
O664       Al665   1.915       .  S
Al665       O673   1.911       .  S
Al665       O675   1.867       .  S
Al665       O674   1.793       .  S
C666        O679   1.253       .  A
C666        C874   1.474       .  S
O667        C677   1.263       .  A
O667       Al669   1.912       .  S
O668        C681   1.264       .  A
O668       Al678   1.915       .  S
Al669       O682   1.878       .  S
Al669       O679   1.875       .  S
Al669       O674   1.794       .  S
O670        C677   1.253       .  A
O670       Al678   1.856       .  S
O671        C680   1.254       .  A
O671       Al678   1.886       .  S
O672       Al678   1.887       .  S
O673        C680   1.260       .  A
O674       Al678   1.791       .  S
O675        C676   1.258       .  A
C676       C1255   1.469       .  S
C677        C779   1.456       .  S
C680        C706   1.493       .  S
C681        O682   1.257       .  A
C681       C1199   1.479       .  S
O683        C698   1.267       .  A
O683       Al691   1.941       .  S
C684        O694   1.267       .  A
C684        O685   1.257       .  A
C684        C905   1.496       .  S
O685       Al687   1.887       .  S
O686        C688   1.266       .  A
O686       Al687   1.930       .  S
Al687       O695   1.945       .  S
Al687       O697   1.873       .  S
Al687       O696   1.768       .  S
C688        O701   1.261       .  A
C688       C1045   1.474       .  S
O689        C699   1.268       .  A
O689       Al691   1.944       .  S
O690        C703   1.268       .  A
O690       Al700   1.939       .  S
Al691       O704   1.892       .  S
Al691       O701   1.880       .  S
Al691       O696   1.777       .  S
O692        C699   1.256       .  A
O692       Al700   1.868       .  S
O693        C702   1.259       .  A
O693       Al700   1.870       .  S
O694       Al700   1.939       .  S
O695        C702   1.269       .  A
O696       Al700   1.770       .  S
O697        C698   1.259       .  A
C698       C1227   1.486       .  S
C699        C723   1.477       .  S
C702        C709   1.485       .  S
C703        O704   1.263       .  A
C703       C1325   1.490       .  S
C705        C706   1.409       .  A
C705        C710   1.404       .  A
C705        H712   1.084       .  S
C706        C707   1.423       .  A
C707        C708   1.395       .  A
C707        N714   1.433       .  S
C708        C709   1.403       .  A
C708        H713   1.084       .  S
C709        C710   1.415       .  A
C710        N711   1.432       .  S
N711        H715   1.045       .  S
N711        H716   1.045       .  S
N714        H717   1.045       .  S
N714        H718   1.046       .  S
C719        C720   1.405       .  A
C719        C724   1.402       .  A
C719        H726   1.084       .  S
C720        C721   1.410       .  A
C721        C722   1.397       .  A
C721        N728   1.432       .  S
C722        C723   1.404       .  A
C722        H727   1.084       .  S
C723        C724   1.411       .  A
C724        N725   1.433       .  S
N725        H729   1.046       .  S
N725        H730   1.045       .  S
N728        H731   1.046       .  S
N728        H732   1.045       .  S
C733        C734   1.400       .  A
C733        C738   1.408       .  A
C733        H740   1.082       .  S
C734        C735   1.405       .  A
C735        C736   1.396       .  A
C735        N742   1.433       .  S
C736        C737   1.409       .  A
C736        H741   1.084       .  S
C737        C738   1.417       .  A
C738        N739   1.438       .  S
N739        H743   1.045       .  S
N739        H744   1.046       .  S
N742        H745   1.046       .  S
N742        H746   1.046       .  S
C747        C748   1.405       .  A
C747        C752   1.402       .  A
C747        H754   1.084       .  S
C748        C749   1.409       .  A
C749        C750   1.401       .  A
C749        N756   1.433       .  S
C750        C751   1.405       .  A
C750        H755   1.084       .  S
C751        C752   1.409       .  A
C752        N753   1.433       .  S
N753        H757   1.046       .  S
N753        H758   1.046       .  S
N756        H759   1.046       .  S
N756        H760   1.046       .  S
C761        C762   1.410       .  A
C761        C766   1.394       .  A
C761        H768   1.084       .  S
C762        C763   1.422       .  A
C763        C764   1.402       .  A
C763        N770   1.432       .  S
C764        C765   1.400       .  A
C764        H769   1.084       .  S
C765        C766   1.407       .  A
C766        N767   1.433       .  S
N767        H771   1.046       .  S
N767        H772   1.045       .  S
N770        H773   1.045       .  S
N770        H774   1.045       .  S
C775        C776   1.407       .  A
C775        C780   1.397       .  A
C775        H782   1.084       .  S
C776        C777   1.410       .  A
C777        C778   1.396       .  A
C777        N784   1.432       .  S
C778        C779   1.403       .  A
C778        H783   1.085       .  S
C779        C780   1.413       .  A
C780        N781   1.439       .  S
N781        H785   1.046       .  S
N781        H786   1.041       .  S
N784        H787   1.046       .  S
N784        H788   1.045       .  S
C789        C790   1.406   1_455  A
C789        C794   1.394       .  A
C789        H796   1.085       .  S
C790        C791   1.415   1_556  A
C791        C792   1.394       .  A
C791        N798   1.432       .  S
C792        C793   1.406   1_655  A
C792        H797   1.084       .  S
C793        C794   1.416   1_554  A
C794        N795   1.432       .  S
N795        H799   1.048       .  S
N795        H800   1.041       .  S
N798        H801   1.044       .  S
N798        H802   1.045       .  S
C803        C804   1.405       .  A
C803        C808   1.398       .  A
C803        H810   1.084       .  S
C804        C805   1.419       .  A
C805        C806   1.401       .  A
C805        N812   1.432       .  S
C806        C807   1.400       .  A
C806        H811   1.084       .  S
C807        C808   1.408       .  A
C808        N809   1.439       .  S
N809        H813   1.045       .  S
N809        H814   1.046       .  S
N812        H815   1.045       .  S
N812        H816   1.045       .  S
C817        C818   1.405       .  A
C817        C822   1.407       .  A
C817        H824   1.084       .  S
C818        C819   1.409       .  A
C819        C820   1.396       .  A
C819        N826   1.434       .  S
C820        C821   1.407       .  A
C820        H825   1.084       .  S
C821        C822   1.412       .  A
C822        N823   1.432       .  S
N823        H827   1.046       .  S
N823        H828   1.046   1_556  S
N826        H829   1.046       .  S
N826        H830   1.046       .  S
C831        C832   1.405   1_556  A
C831        C836   1.404       .  A
C831        H838   1.084       .  S
C832        C833   1.414       .  A
C833        C834   1.403       .  A
C833        N840   1.433       .  S
C834        C835   1.405   1_554  A
C834        H839   1.084       .  S
C835        C836   1.414       .  A
C836        N837   1.432       .  S
N837        H841   1.046       .  S
N837        H842   1.046       .  S
N840        H843   1.046       .  S
N840        H844   1.046       .  S
C845        C846   1.406       .  A
C845        C850   1.396       .  A
C845        H852   1.084       .  S
C846        C847   1.411       .  A
C847        C848   1.409       .  A
C847        N854   1.437       .  S
C848        C849   1.405       .  A
C848        H853   1.084       .  S
C849        C850   1.406       .  A
C850        N851   1.439       .  S
N851        H855   1.046       .  S
N851        H856   1.046       .  S
N854        H857   1.046       .  S
N854        H858   1.046       .  S
C859        C860   1.397       .  A
C859        C864   1.397       .  A
C859        H866   1.085       .  S
C860        C861   1.406       .  A
C861        C862   1.408       .  A
C861        N868   1.432   1_545  S
C862        C863   1.409       .  A
C862        H867   1.084       .  S
C863        C864   1.415       .  A
C864        N865   1.433       .  S
N865        H869   1.046       .  S
N865        H870   1.046       .  S
N868        H871   1.046       .  S
N868        H872   1.045       .  S
C873        C874   1.404       .  A
C873        C878   1.402       .  A
C873        H880   1.084       .  S
C874        C875   1.410       .  A
C875        C876   1.400       .  A
C875        N882   1.433       .  S
C876        C877   1.410       .  A
C876        H881   1.084       .  S
C877        C878   1.410       .  A
C878        N879   1.432       .  S
N879        H883   1.046       .  S
N879        H884   1.046       .  S
N882        H885   1.045       .  S
N882        H886   1.046       .  S
C887        C888   1.405       .  A
C887        C892   1.404       .  A
C887        H894   1.084       .  S
C888        C889   1.412       .  A
C889        C890   1.403       .  A
C889        N896   1.438       .  S
C890        C891   1.404       .  A
C890        H895   1.084       .  S
C891        C892   1.409       .  A
C892        N893   1.432       .  S
N893        H897   1.046       .  S
N893        H898   1.046       .  S
N896        H899   1.046       .  S
N896        H900   1.045       .  S
C901        C902   1.407       .  A
C901        C906   1.405       .  A
C901        H908   1.084       .  S
C902        C903   1.415       .  A
C903        C904   1.408       .  A
C903        N910   1.432       .  S
C904        C905   1.406       .  A
C904        H909   1.084       .  S
C905        C906   1.416       .  A
C906        N907   1.433       .  S
N907        H911   1.046       .  S
N907        H912   1.045       .  S
N910        H913   1.046       .  S
N910        H914   1.045       .  S
C915        C916   1.409   1_455  A
C915        C920   1.399       .  A
C915        H922   1.084       .  S
C916        C917   1.411       .  A
C917        C918   1.399       .  A
C917        N924   1.431       .  S
C918        C919   1.400   1_655  A
C918        H923   1.085       .  S
C919        C920   1.402       .  A
C920        N921   1.433       .  S
N921        H925   1.045       .  S
N921        H926   1.046       .  S
N924        H927   1.045       .  S
N924        H928   1.045       .  S
C929        C930   1.405       .  A
C929        C934   1.397       .  A
C929        H936   1.084       .  S
C930        C931   1.412       .  A
C931        C932   1.415       .  A
C931        N938   1.431       .  S
C932        C933   1.409       .  A
C932        H937   1.084       .  S
C933        C934   1.411       .  A
C934        N935   1.434       .  S
N935        H939   1.046       .  S
N935        H940   1.046       .  S
N938        H941   1.046       .  S
N938        H942   1.046       .  S
C943        C944   1.399       .  A
C943        C948   1.402       .  A
C943        H950   1.084       .  S
C944        C945   1.413       .  A
C945        C946   1.408       .  A
C945        N952   1.438       .  S
C946        C947   1.405       .  A
C946        H951   1.083       .  S
C947        C948   1.417       .  A
C948        N949   1.432       .  S
N949        H953   1.046       .  S
N949        H954   1.046       .  S
N952        H955   1.046       .  S
N952        H956   1.046       .  S
C957        C958   1.409       .  A
C957        C962   1.402       .  A
C957        H964   1.084       .  S
C958        C959   1.414       .  A
C959        C960   1.403       .  A
C959        N966   1.438       .  S
C960        C961   1.405       .  A
C960        H965   1.084       .  S
C961        C962   1.416       .  A
C962        N963   1.433       .  S
N963        H967   1.044       .  S
N963        H968   1.046       .  S
N966        H969   1.045       .  S
N966        H970   1.046       .  S
C971        C972   1.405       .  A
C971        C976   1.406       .  A
C971        H978   1.084       .  S
C972        C973   1.403       .  A
C973        C974   1.393       .  A
C973        N980   1.432       .  S
C974        C975   1.404       .  A
C974        H979   1.084       .  S
C975        C976   1.408       .  A
C976        N977   1.432       .  S
N977        H981   1.046       .  S
N977        H982   1.045       .  S
N980        H983   1.046       .  S
N980        H984   1.046       .  S
C985        C986   1.406       .  A
C985        C990   1.404       .  A
C985        H992   1.084       .  S
C986        C987   1.412       .  A
C987        C988   1.404       .  A
C987        N994   1.433       .  S
C988        C989   1.407       .  A
C988        H993   1.084       .  S
C989        C990   1.413       .  A
C990        N991   1.432       .  S
N991        H995   1.046       .  S
N991        H996   1.046       .  S
N994        H997   1.046       .  S
N994        H998   1.046       .  S
C999       C1000   1.407       .  A
C999       C1004   1.397       .  A
C999       H1006   1.083       .  S
C1000      C1001   1.411       .  A
C1001      C1002   1.408       .  A
C1001      N1008   1.432       .  S
C1002      C1003   1.406       .  A
C1002      H1007   1.084       .  S
C1003      C1004   1.409       .  A
C1004      N1005   1.440       .  S
N1005      H1009   1.045       .  S
N1005      H1010   1.046       .  S
N1008      H1011   1.046       .  S
N1008      H1012   1.045       .  S
C1013      C1014   1.402       .  A
C1013      C1018   1.401       .  A
C1013      H1020   1.085       .  S
C1014      C1015   1.406       .  A
C1015      C1016   1.401       .  A
C1015      N1022   1.439       .  S
C1016      C1017   1.406       .  A
C1016      H1021   1.083       .  S
C1017      C1018   1.409       .  A
C1018      N1019   1.432       .  S
N1019      H1023   1.045       .  S
N1019      H1024   1.045       .  S
N1022      H1025   1.045       .  S
N1022      H1026   1.046       .  S
C1027      C1028   1.404       .  A
C1027      C1032   1.396       .  A
C1027      H1034   1.084       .  S
C1028      C1029   1.421       .  A
C1029      C1030   1.405       .  A
C1029      N1036   1.432   1_545  S
C1030      C1031   1.401       .  A
C1030      H1035   1.084   1_545  S
C1031      C1032   1.407       .  A
C1032      N1033   1.434       .  S
N1033      H1037   1.046       .  S
N1033      H1038   1.046       .  S
N1036      H1039   1.045       .  S
N1036      H1040   1.045       .  S
C1041      C1042   1.406       .  A
C1041      C1046   1.398       .  A
C1041      H1048   1.084       .  S
C1042      C1043   1.415       .  A
C1043      C1044   1.399       .  A
C1043      N1050   1.433       .  S
C1044      C1045   1.400       .  A
C1044      H1049   1.084       .  S
C1045      C1046   1.416       .  A
C1046      N1047   1.433       .  S
N1047      H1051   1.044       .  S
N1047      H1052   1.046       .  S
N1050      H1053   1.045       .  S
N1050      H1054   1.046       .  S
C1055      C1056   1.403       .  A
C1055      C1060   1.396       .  A
C1055      H1062   1.085       .  S
C1056      C1057   1.407       .  A
C1057      C1058   1.401       .  A
C1057      N1064   1.433       .  S
C1058      C1059   1.405       .  A
C1058      H1063   1.084       .  S
C1059      C1060   1.415       .  A
C1060      N1061   1.433       .  S
N1061      H1065   1.043       .  S
N1061      H1066   1.046       .  S
N1064      H1067   1.046       .  S
N1064      H1068   1.046       .  S
C1069      C1070   1.408       .  A
C1069      C1074   1.408       .  A
C1069      H1076   1.083       .  S
C1070      C1071   1.416       .  A
C1071      C1072   1.404       .  A
C1071      N1078   1.433       .  S
C1072      C1073   1.404       .  A
C1072      H1077   1.084       .  S
C1073      C1074   1.412       .  A
C1074      N1075   1.432       .  S
N1075      H1079   1.046       .  S
N1075      H1080   1.046       .  S
N1078      H1081   1.046       .  S
N1078      H1082   1.046       .  S
C1083      C1084   1.405       .  A
C1083      C1088   1.398       .  A
C1083      H1090   1.084       .  S
C1084      C1085   1.413       .  A
C1085      C1086   1.401       .  A
C1085      N1092   1.433       .  S
C1086      C1087   1.404       .  A
C1086      H1091   1.084       .  S
C1087      C1088   1.418       .  A
C1088      N1089   1.433       .  S
N1089      H1093   1.046       .  S
N1089      H1094   1.044       .  S
N1092      H1095   1.046       .  S
N1092      H1096   1.045       .  S
C1097      C1098   1.405   1_554  A
C1097      C1102   1.400       .  A
C1097      H1104   1.084       .  S
C1098      C1099   1.412       .  A
C1099      C1100   1.403       .  A
C1099      N1106   1.438       .  S
C1100      C1101   1.405   1_556  A
C1100      H1105   1.084       .  S
C1101      C1102   1.407       .  A
C1102      N1103   1.433       .  S
N1103      H1107   1.046       .  S
N1103      H1108   1.046       .  S
N1106      H1109   1.046       .  S
N1106      H1110   1.046       .  S
C1111      C1112   1.409       .  A
C1111      C1116   1.407       .  A
C1111      H1118   1.084       .  S
C1112      C1113   1.423       .  A
C1113      C1114   1.396       .  A
C1113      N1120   1.433       .  S
C1114      C1115   1.399       .  A
C1114      H1119   1.085       .  S
C1115      C1116   1.414       .  A
C1116      N1117   1.432       .  S
N1117      H1121   1.046       .  S
N1117      H1122   1.045       .  S
N1120      H1123   1.046       .  S
N1120      H1124   1.045       .  S
C1125      C1126   1.405   1_554  A
C1125      C1130   1.399       .  A
C1125      H1132   1.084       .  S
C1126      C1127   1.414       .  A
C1127      C1128   1.408       .  A
C1127      N1134   1.438       .  S
C1128      C1129   1.409   1_556  A
C1128      H1133   1.083       .  S
C1129      C1130   1.419       .  A
C1130      N1131   1.433       .  S
N1131      H1135   1.045       .  S
N1131      H1136   1.046       .  S
N1134      H1137   1.045       .  S
N1134      H1138   1.046       .  S
C1139      C1140   1.405       .  A
C1139      C1144   1.406       .  A
C1139      H1146   1.083       .  S
C1140      C1141   1.414       .  A
C1141      C1142   1.403       .  A
C1141      N1148   1.433       .  S
C1142      C1143   1.404       .  A
C1142      H1147   1.084       .  S
C1143      C1144   1.414       .  A
C1144      N1145   1.438       .  S
N1145      H1149   1.046       .  S
N1145      H1150   1.045       .  S
N1148      H1151   1.046       .  S
N1148      H1152   1.045       .  S
C1153      C1154   1.408       .  A
C1153      C1158   1.404   1_554  A
C1153      H1160   1.084   1_554  S
C1154      C1155   1.423       .  A
C1155      C1156   1.396       .  A
C1155      N1162   1.433       .  S
C1156      C1157   1.401   1_554  A
C1156      H1161   1.084       .  S
C1157      C1158   1.411       .  A
C1158      N1159   1.433       .  S
N1159      H1163   1.046       .  S
N1159      H1164   1.046       .  S
N1162      H1165   1.046       .  S
N1162      H1166   1.045       .  S
C1167      C1168   1.404       .  A
C1167      C1172   1.403       .  A
C1167      H1174   1.084       .  S
C1168      C1169   1.410       .  A
C1169      C1170   1.404       .  A
C1169      N1176   1.432       .  S
C1170      C1171   1.406       .  A
C1170      H1175   1.084       .  S
C1171      C1172   1.416       .  A
C1172      N1173   1.433       .  S
N1173      H1177   1.046       .  S
N1173      H1178   1.046       .  S
N1176      H1179   1.045       .  S
N1176      H1180   1.046       .  S
C1181      C1182   1.405       .  A
C1181      C1186   1.409       .  A
C1181      H1188   1.083       .  S
C1182      C1183   1.409       .  A
C1183      C1184   1.397       .  A
C1183      N1190   1.433       .  S
C1184      C1185   1.403       .  A
C1184      H1189   1.084       .  S
C1185      C1186   1.412       .  A
C1186      N1187   1.432       .  S
N1187      H1191   1.046       .  S
N1187      H1192   1.046       .  S
N1190      H1193   1.046       .  S
N1190      H1194   1.046       .  S
C1195      C1196   1.409       .  A
C1195      C1200   1.409       .  A
C1195      H1202   1.083       .  S
C1196      C1197   1.418       .  A
C1197      C1198   1.395       .  A
C1197      N1204   1.433       .  S
C1198      C1199   1.404       .  A
C1198      H1203   1.085       .  S
C1199      C1200   1.411       .  A
C1200      N1201   1.437       .  S
N1201      H1205   1.046       .  S
N1201      H1206   1.045       .  S
N1204      H1207   1.045       .  S
N1204      H1208   1.045       .  S
C1209      C1210   1.405       .  A
C1209      C1214   1.403       .  A
C1209      H1216   1.084       .  S
C1210      C1211   1.414       .  A
C1211      C1212   1.409       .  A
C1211      N1218   1.438       .  S
C1212      C1213   1.407       .  A
C1212      H1217   1.083       .  S
C1213      C1214   1.412       .  A
C1214      N1215   1.433       .  S
N1215      H1219   1.046       .  S
N1215      H1220   1.045       .  S
N1218      H1221   1.045       .  S
N1218      H1222   1.046       .  S
C1223      C1224   1.405       .  A
C1223      C1228   1.406       .  A
C1223      H1230   1.084       .  S
C1224      C1225   1.413       .  A
C1225      C1226   1.397       .  A
C1225      N1232   1.440       .  S
C1226      C1227   1.406       .  A
C1226      H1231   1.083       .  S
C1227      C1228   1.413       .  A
C1228      N1229   1.432       .  S
N1229      H1233   1.046       .  S
N1229      H1234   1.046       .  S
N1232      H1235   1.046       .  S
N1232      H1236   1.046       .  S
C1237      C1238   1.408       .  A
C1237      C1242   1.405       .  A
C1237      H1244   1.083       .  S
C1238      C1239   1.422       .  A
C1239      C1240   1.399       .  A
C1239      N1246   1.433       .  S
C1240      C1241   1.402       .  A
C1240      H1245   1.084       .  S
C1241      C1242   1.413       .  A
C1242      N1243   1.439       .  S
N1243      H1247   1.045       .  S
N1243      H1248   1.045       .  S
N1246      H1249   1.045       .  S
N1246      H1250   1.045       .  S
C1251      C1252   1.406       .  A
C1251      C1256   1.404       .  A
C1251      H1258   1.084       .  S
C1252      C1253   1.410       .  A
C1253      C1254   1.390       .  A
C1253      N1260   1.433       .  S
C1254      C1255   1.402       .  A
C1254      H1259   1.085       .  S
C1255      C1256   1.407       .  A
C1256      N1257   1.432       .  S
N1257      H1261   1.046       .  S
N1257      H1262   1.046       .  S
N1260      H1263   1.046       .  S
N1260      H1264   1.046       .  S
C1265      C1266   1.405       .  A
C1265      C1270   1.404       .  A
C1265      H1272   1.084       .  S
C1266      C1267   1.407       .  A
C1267      C1268   1.397       .  A
C1267      N1274   1.433       .  S
C1268      C1269   1.403       .  A
C1268      H1273   1.084       .  S
C1269      C1270   1.410       .  A
C1270      N1271   1.438       .  S
N1271      H1275   1.045       .  S
N1271      H1276   1.046       .  S
N1274      H1277   1.046       .  S
N1274      H1278   1.045       .  S
C1279      C1280   1.401       .  A
C1279      C1284   1.411       .  A
C1279      H1286   1.081       .  S
C1280      C1281   1.407       .  A
C1281      C1282   1.397       .  A
C1281      N1288   1.433       .  S
C1282      C1283   1.411       .  A
C1282      H1287   1.084       .  S
C1283      C1284   1.419       .  A
C1284      N1285   1.437   1_565  S
N1285      H1289   1.045       .  S
N1285      H1290   1.046       .  S
N1288      H1291   1.046       .  S
N1288      H1292   1.045       .  S
C1293      C1294   1.409       .  A
C1293      C1298   1.407       .  A
C1293      H1300   1.083       .  S
C1294      C1295   1.413       .  A
C1295      C1296   1.402       .  A
C1295      N1302   1.432       .  S
C1296      C1297   1.404       .  A
C1296      H1301   1.084       .  S
C1297      C1298   1.412       .  A
C1298      N1299   1.438       .  S
N1299      H1303   1.046       .  S
N1299      H1304   1.046       .  S
N1302      H1305   1.046       .  S
N1302      H1306   1.046       .  S
C1307      C1308   1.405       .  A
C1307      C1312   1.400       .  A
C1307      H1314   1.084       .  S
C1308      C1309   1.412       .  A
C1309      C1310   1.400       .  A
C1309      N1316   1.433       .  S
C1310      C1311   1.406       .  A
C1310      H1315   1.084       .  S
C1311      C1312   1.413       .  A
C1312      N1313   1.433       .  S
N1313      H1317   1.046       .  S
N1313      H1318   1.046       .  S
N1316      H1319   1.045       .  S
N1316      H1320   1.045       .  S
C1321      C1322   1.404       .  A
C1321      C1326   1.407       .  A
C1321      H1328   1.084       .  S
C1322      C1323   1.412       .  A
C1323      C1324   1.405       .  A
C1323      N1330   1.439       .  S
C1324      C1325   1.408       .  A
C1324      H1329   1.083       .  S
C1325      C1326   1.416       .  A
C1326      N1327   1.438       .  S
N1327      H1331   1.045       .  S
N1327      H1332   1.046       .  S
N1330      H1333   1.046       .  S
N1330      H1334   1.045       .  S
C1335      C1336   1.403       .  A
C1335      C1340   1.401       .  A
C1335      H1342   1.084       .  S
C1336      C1337   1.415       .  A
C1337      C1338   1.408       .  A
C1337      N1344   1.438       .  S
C1338      C1339   1.406       .  A
C1338      H1343   1.083       .  S
C1339      C1340   1.411       .  A
C1340      N1341   1.433       .  S
N1341      H1345   1.045       .  S
N1341      H1346   1.046       .  S
N1344      H1347   1.046       .  S
N1344      H1348   1.046       .  S
C1349      C1350   1.402       .  A
C1349      C1354   1.407       .  A
C1349      H1356   1.084       .  S
C1350      C1351   1.416       .  A
C1351      C1352   1.401       .  A
C1351      N1358   1.433       .  S
C1352      C1353   1.401       .  A
C1352      H1357   1.084       .  S
C1353      C1354   1.412       .  A
C1354      N1355   1.438       .  S
N1355      H1359   1.046       .  S
N1355      H1360   1.045       .  S
N1358      H1361   1.045       .  S
N1358      H1362   1.045       .  S
C1363      C1364   1.404       .  A
C1363      C1368   1.405       .  A
C1363      H1370   1.084       .  S
C1364      C1365   1.408       .  A
C1365      C1366   1.403       .  A
C1365      N1372   1.432       .  S
C1366      C1367   1.409       .  A
C1366      H1371   1.083       .  S
C1367      C1368   1.414       .  A
C1368      N1369   1.432       .  S
N1369      H1373   1.046       .  S
N1369      H1374   1.046       .  S
N1372      H1375   1.045       .  S
N1372      H1376   1.046       .  S
C1377      C1378   1.404       .  A
C1377      C1382   1.404       .  A
C1377      H1384   1.084       .  S
C1378      C1379   1.415       .  A
C1379      C1380   1.405       .  A
C1379      N1386   1.438       .  S
C1380      C1381   1.404       .  A
C1380      H1385   1.083       .  S
C1381      C1382   1.415       .  A
C1382      N1383   1.433       .  S
N1383      H1387   1.046       .  S
N1383      H1388   1.045       .  S
N1386      H1389   1.046       .  S
N1386      H1390   1.045       .  S
C1391      C1392   1.404       .  A
C1391      C1396   1.404       .  A
C1391      H1398   1.084       .  S
C1392      C1393   1.406       .  A
C1393      C1394   1.394       .  A
C1393      N1400   1.434       .  S
C1394      C1395   1.406       .  A
C1394      H1399   1.084       .  S
C1395      C1396   1.409       .  A
C1396      N1397   1.432       .  S
N1397      H1401   1.045       .  S
N1397      H1402   1.046       .  S
N1400      H1403   1.046       .  S
N1400      H1404   1.046       .  S
C1405      C1406   1.403       .  A
C1405      C1410   1.396       .  A
C1405      H1412   1.084       .  S
C1406      C1407   1.412   1_655  A
C1407      C1408   1.400       .  A
C1407      N1414   1.438       .  S
C1408      C1409   1.403   1_455  A
C1408      H1413   1.084       .  S
C1409      C1410   1.409       .  A
C1410      N1411   1.433       .  S
N1411      H1415   1.046       .  S
N1411      H1416   1.046       .  S
N1414      H1417   1.045       .  S
N1414      H1418   1.046       .  S
C1419      C1420   1.405       .  A
C1419      C1424   1.403       .  A
C1419      H1426   1.084       .  S
C1420      C1421   1.413       .  A
C1421      C1422   1.404       .  A
C1421      N1428   1.432       .  S
C1422      C1423   1.405       .  A
C1422      H1427   1.084       .  S
C1423      C1424   1.415       .  A
C1424      N1425   1.433       .  S
N1425      H1429   1.046       .  S
N1425      H1430   1.046       .  S
N1428      H1431   1.046       .  S
N1428      H1432   1.046       .  S
C1433      C1434   1.405       .  A
C1433      C1438   1.409       .  A
C1433      H1440   1.084       .  S
C1434      C1435   1.410       .  A
C1435      C1436   1.397       .  A
C1435      N1442   1.439       .  S
C1436      C1437   1.406       .  A
C1436      H1441   1.083       .  S
C1437      C1438   1.415       .  A
C1438      N1439   1.437       .  S
N1439      H1443   1.046   1_554  S
N1439      H1444   1.046       .  S
N1442      H1445   1.045       .  S
N1442      H1446   1.046       .  S
C1447      C1448   1.408       .  A
C1447      C1452   1.399       .  A
C1447      H1454   1.084       .  S
C1448      C1449   1.418   1_554  A
C1449      C1450   1.396       .  A
C1449      N1456   1.433       .  S
C1450      C1451   1.406       .  A
C1450      H1455   1.084       .  S
C1451      C1452   1.410   1_556  A
C1452      N1453   1.433       .  S
N1453      H1457   1.046       .  S
N1453      H1458   1.046       .  S
N1456      H1459   1.045       .  S
N1456      H1460   1.045       .  S
C1461      C1462   1.401       .  A
C1461      C1466   1.404       .  A
C1461      H1468   1.083   1_565  S
C1462      C1463   1.413       .  A
C1463      C1464   1.398       .  A
C1463      N1470   1.434       .  S
C1464      C1465   1.407       .  A
C1464      H1469   1.084       .  S
C1465      C1466   1.421       .  A
C1466      N1467   1.432   1_565  S
N1467      H1471   1.045       .  S
N1467      H1472   1.045       .  S
N1470      H1473   1.046       .  S
N1470      H1474   1.044       .  S
C1475      C1476   1.409       .  A
C1475      C1480   1.402       .  A
C1475      H1482   1.083       .  S
C1476      C1477   1.418       .  A
C1477      C1478   1.407   1_554  A
C1477      N1484   1.438   1_554  S
C1478      C1479   1.403       .  A
C1478      H1483   1.084       .  S
C1479      C1480   1.406   1_556  A
C1480      N1481   1.433       .  S
N1481      H1485   1.045       .  S
N1481      H1486   1.046       .  S
N1484      H1487   1.046   1_556  S
N1484      H1488   1.046       .  S
C1489      C1490   1.405       .  A
C1489      C1494   1.404       .  A
C1489      H1496   1.084       .  S
C1490      C1491   1.406       .  A
C1491      C1492   1.393       .  A
C1491      N1498   1.433       .  S
C1492      C1493   1.408       .  A
C1492      H1497   1.085       .  S
C1493      C1494   1.407       .  A
C1494      N1495   1.437       .  S
N1495      H1499   1.045       .  S
N1495      H1500   1.046       .  S
N1498      H1501   1.046       .  S
N1498      H1502   1.044       .  S
C1503      C1504   1.405       .  A
C1503      C1508   1.399       .  A
C1503      H1510   1.084       .  S
C1504      C1505   1.417       .  A
C1505      C1506   1.404       .  A
C1505      N1512   1.432   1_565  S
C1506      C1507   1.404       .  A
C1506      H1511   1.084       .  S
C1507      C1508   1.414       .  A
C1508      N1509   1.433       .  S
N1509      H1513   1.044       .  S
N1509      H1514   1.045       .  S
N1512      H1515   1.046       .  S
N1512      H1516   1.045       .  S
C1517      C1518   1.410       .  A
C1517      C1522   1.401       .  A
C1517      H1524   1.084       .  S
C1518      C1519   1.408       .  A
C1519      C1520   1.404       .  A
C1519      N1526   1.432       .  S
C1520      C1521   1.407       .  A
C1520      H1525   1.084       .  S
C1521      C1522   1.413       .  A
C1522      N1523   1.433       .  S
N1523      H1527   1.046       .  S
N1523      H1528   1.044       .  S
N1526      H1529   1.046       .  S
N1526      H1530   1.045       .  S
C1531      C1532   1.404       .  A
C1531      C1536   1.405       .  A
C1531      H1538   1.083       .  S
C1532      C1533   1.415       .  A
C1533      C1534   1.403       .  A
C1533      N1540   1.433       .  S
C1534      C1535   1.403       .  A
C1534      H1539   1.084       .  S
C1535      C1536   1.418       .  A
C1536      N1537   1.438       .  S
N1537      H1541   1.046   1_565  S
N1537      H1542   1.045       .  S
N1540      H1543   1.046       .  S
N1540      H1544   1.045       .  S
C1545      C1546   1.409       .  A
C1545      C1550   1.403       .  A
C1545      H1552   1.084       .  S
C1546      C1547   1.413       .  A
C1547      C1548   1.397       .  A
C1547      N1554   1.433       .  S
C1548      C1549   1.404       .  A
C1548      H1553   1.085       .  S
C1549      C1550   1.403       .  A
C1550      N1551   1.438       .  S
N1551      H1555   1.046       .  S
N1551      H1556   1.046       .  S
N1554      H1557   1.046       .  S
N1554      H1558   1.045       .  S
C1559      C1560   1.404       .  A
C1559      C1564   1.408       .  A
C1559      H1566   1.084       .  S
C1560      C1561   1.411       .  A
C1561      C1562   1.400       .  A
C1561      N1568   1.439       .  S
C1562      C1563   1.402       .  A
C1562      H1567   1.085       .  S
C1563      C1564   1.418       .  A
C1564      N1565   1.439       .  S
N1565      H1569   1.045       .  S
N1565      H1570   1.042       .  S
N1568      H1571   1.046       .  S
N1568      H1572   1.046       .  S
C1573      C1574   1.402       .  A
C1573      C1578   1.399       .  A
C1573      H1580   1.084       .  S
C1574      C1575   1.409       .  A
C1575      C1576   1.405       .  A
C1575      N1582   1.432       .  S
C1576      C1577   1.406       .  A
C1576      H1581   1.084   1_565  S
C1577      C1578   1.414       .  A
C1578      N1579   1.433       .  S
N1579      H1583   1.046       .  S
N1579      H1584   1.046   1_455  S
N1582      H1585   1.046   1_565  S
N1582      H1586   1.045       .  S
C1587      C1588   1.407       .  A
C1587      C1592   1.401       .  A
C1587      H1594   1.084       .  S
C1588      C1589   1.417       .  A
C1589      C1590   1.401       .  A
C1589      N1596   1.433       .  S
C1590      C1591   1.398       .  A
C1590      H1595   1.084       .  S
C1591      C1592   1.405       .  A
C1592      N1593   1.432       .  S
N1593      H1597   1.046       .  S
N1593      H1598   1.045       .  S
N1596      H1599   1.046       .  S
N1596      H1600   1.046       .  S
C1601      C1602   1.406       .  A
C1601      C1606   1.404       .  A
C1601      H1608   1.084       .  S
C1602      C1603   1.417       .  A
C1603      C1604   1.405       .  A
C1603      N1610   1.438       .  S
C1604      C1605   1.406       .  A
C1604      H1609   1.083       .  S
C1605      C1606   1.412       .  A
C1606      N1607   1.432       .  S
N1607      H1611   1.046       .  S
N1607      H1612   1.045       .  S
N1610      H1613   1.045       .  S
N1610      H1614   1.046   1_565  S
C1615      C1616   1.403       .  A
C1615      C1620   1.405       .  A
C1615      H1622   1.084       .  S
C1616      C1617   1.405       .  A
C1617      C1618   1.393       .  A
C1617      N1624   1.434       .  S
C1618      C1619   1.404       .  A
C1618      H1623   1.084       .  S
C1619      C1620   1.410       .  A
C1620      N1621   1.432       .  S
N1621      H1625   1.046       .  S
N1621      H1626   1.045   1_556  S
N1624      H1627   1.046       .  S
N1624      H1628   1.045       .  S
C1629      C1630   1.404       .  A
C1629      C1634   1.403   1_556  A
C1629      H1636   1.084       .  S
C1630      C1631   1.414   1_556  A
C1631      C1632   1.397       .  A
C1631      N1638   1.433       .  S
C1632      C1633   1.408       .  A
C1632      H1637   1.084       .  S
C1633      C1634   1.413       .  A
C1634      N1635   1.433       .  S
N1635      H1639   1.046       .  S
N1635      H1640   1.046   1_554  S
N1638      H1641   1.046   1_554  S
N1638      H1642   1.044       .  S
C1643      C1644   1.407       .  A
C1643      C1648   1.406       .  A
C1643      H1650   1.083       .  S
C1644      C1645   1.419       .  A
C1645      C1646   1.401       .  A
C1645      N1652   1.432       .  S
C1646      C1647   1.405       .  A
C1646      H1651   1.084       .  S
C1647      C1648   1.415       .  A
C1648      N1649   1.438       .  S
N1649      H1653   1.045       .  S
N1649      H1654   1.046       .  S
N1652      H1655   1.045       .  S
N1652      H1656   1.043       .  S
C1657      C1658   1.404       .  A
C1657      C1662   1.407   1_554  A
C1657      H1664   1.084       .  S
C1658      C1659   1.412   1_554  A
C1659      C1660   1.408       .  A
C1659      N1666   1.438   1_545  S
C1660      C1661   1.409       .  A
C1660      H1665   1.083       .  S
C1661      C1662   1.417       .  A
C1662      N1663   1.438   1_556  S
N1663      H1667   1.046       .  S
N1663      H1668   1.045   1_554  S
N1666      H1669   1.046   1_556  S
N1666      H1670   1.046       .  S
C1671      C1672   1.404       .  A
C1671      C1676   1.409       .  A
C1671      H1678   1.084       .  S
C1672      C1673   1.403       .  A
C1673      C1674   1.394       .  A
C1673      N1680   1.434       .  S
C1674      C1675   1.406       .  A
C1674      H1679   1.084       .  S
C1675      C1676   1.414       .  A
C1676      N1677   1.437       .  S
N1677      H1681   1.046       .  S
N1677      H1682   1.046       .  S
N1680      H1683   1.045       .  S
N1680      H1684   1.046       .  S
C1685      C1686   1.408       .  A
C1685      C1690   1.398   1_545  A
C1685      H1692   1.084       .  S
C1686      C1687   1.410       .  A
C1687      C1688   1.399   1_545  A
C1687      N1694   1.433       .  S
C1688      C1689   1.402       .  A
C1688      H1693   1.084       .  S
C1689      C1690   1.414       .  A
C1690      N1691   1.439       .  S
N1691      H1695   1.045       .  S
N1691      H1696   1.042       .  S
N1694      H1697   1.046       .  S
N1694      H1698   1.046       .  S
C1699      C1700   1.400       .  A
C1699      C1704   1.407       .  A
C1699      H1706   1.084       .  S
C1700      C1701   1.401       .  A
C1701      C1702   1.399       .  A
C1701      N1708   1.433       .  S
C1702      C1703   1.409       .  A
C1702      H1707   1.084       .  S
C1703      C1704   1.416       .  A
C1704      N1705   1.432       .  S
N1705      H1709   1.046       .  S
N1705      H1710   1.046       .  S
N1708      H1711   1.046       .  S
N1708      H1712   1.046       .  S
C1713      C1714   1.403       .  A
C1713      C1718   1.397       .  A
C1713      H1720   1.084       .  S
C1714      C1715   1.412       .  A
C1715      C1716   1.409       .  A
C1715      N1722   1.432       .  S
C1716      C1717   1.404       .  A
C1716      H1721   1.084       .  S
C1717      C1718   1.410       .  A
C1718      N1719   1.434       .  S
N1719      H1723   1.046       .  S
N1719      H1724   1.046       .  S
N1722      H1725   1.045       .  S
N1722      H1726   1.046       .  S
C1727      C1728   1.403       .  A
C1727      C1732   1.403       .  A
C1727      H1734   1.084       .  S
C1728      C1729   1.414       .  A
C1729      C1730   1.409       .  A
C1729      N1736   1.438       .  S
C1730      C1731   1.407       .  A
C1730      H1735   1.083       .  S
C1731      C1732   1.413       .  A
C1732      N1733   1.433       .  S
N1733      H1737   1.045       .  S
N1733      H1738   1.046       .  S
N1736      H1739   1.045       .  S
N1736      H1740   1.046       .  S
C1741      C1742   1.405       .  A
C1741      C1746   1.405       .  A
C1741      H1748   1.084   1_545  S
C1742      C1743   1.412       .  A
C1743      C1744   1.406       .  A
C1743      N1750   1.433       .  S
C1744      C1745   1.409       .  A
C1744      H1749   1.084       .  S
C1745      C1746   1.414       .  A
C1746      N1747   1.432       .  S
N1747      H1751   1.046       .  S
N1747      H1752   1.046       .  S
N1750      H1753   1.046       .  S
N1750      H1754   1.046       .  S
C1755      C1756   1.405       .  A
C1755      C1760   1.406       .  A
C1755      H1762   1.084       .  S
C1756      C1757   1.405       .  A
C1757      C1758   1.392       .  A
C1757      N1764   1.434       .  S
C1758      C1759   1.406       .  A
C1758      H1763   1.084       .  S
C1759      C1760   1.410       .  A
C1760      N1761   1.432       .  S
N1761      H1765   1.045       .  S
N1761      H1766   1.046       .  S
N1764      H1767   1.046       .  S
N1764      H1768   1.046       .  S
C1769      C1770   1.405       .  A
C1769      C1774   1.409       .  A
C1769      H1776   1.084   1_565  S
C1770      C1771   1.419       .  A
C1771      C1772   1.397       .  A
C1771      N1778   1.433       .  S
C1772      C1773   1.405       .  A
C1772      H1777   1.084       .  S
C1773      C1774   1.419       .  A
C1774      N1775   1.438       .  S
N1775      H1779   1.046   1_565  S
N1775      H1780   1.046       .  S
N1778      H1781   1.046       .  S
N1778      H1782   1.045       .  S
C1783      C1784   1.408       .  A
C1783      C1788   1.404       .  A
C1783      H1790   1.083       .  S
C1784      C1785   1.416       .  A
C1785      C1786   1.407       .  A
C1785      N1792   1.432       .  S
C1786      C1787   1.405       .  A
C1786      H1791   1.084       .  S
C1787      C1788   1.409       .  A
C1788      N1789   1.433       .  S
N1789      H1793   1.046       .  S
N1789      H1794   1.045       .  S
N1792      H1795   1.046       .  S
N1792      H1796   1.046       .  S
C1797      C1798   1.405       .  A
C1797      C1802   1.408       .  A
C1797      H1804   1.083       .  S
C1798      C1799   1.411       .  A
C1799      C1800   1.399       .  A
C1799      N1806   1.433       .  S
C1800      C1801   1.404       .  A
C1800      H1805   1.084       .  S
C1801      C1802   1.416       .  A
C1802      N1803   1.438       .  S
N1803      H1807   1.046       .  S
N1803      H1808   1.046       .  S
N1806      H1809   1.046       .  S
N1806      H1810   1.045       .  S
C1811      C1812   1.403       .  A
C1811      C1816   1.404       .  A
C1811      H1818   1.084       .  S
C1812      C1813   1.409       .  A
C1813      C1814   1.397       .  A
C1813      N1820   1.439       .  S
C1814      C1815   1.405       .  A
C1814      H1819   1.084       .  S
C1815      C1816   1.409       .  A
C1816      N1817   1.432       .  S
N1817      H1821   1.045   1_554  S
N1817      H1822   1.046       .  S
N1820      H1823   1.046       .  S
N1820      H1824   1.045       .  S
C1825      C1826   1.403   1_554  A
C1825      C1830   1.397   1_545  A
C1825      H1832   1.084       .  S
C1826      C1827   1.409       .  A
C1827      C1828   1.401   1_545  A
C1827      N1834   1.433       .  S
C1828      C1829   1.405   1_556  A
C1828      H1833   1.084       .  S
C1829      C1830   1.408       .  A
C1830      N1831   1.433       .  S
N1831      H1835   1.046       .  S
N1831      H1836   1.045       .  S
N1834      H1837   1.045       .  S
N1834      H1838   1.046       .  S
C1839      C1840   1.407       .  A
C1839      C1844   1.404       .  A
C1839      H1846   1.083       .  S
C1840      C1841   1.418       .  A
C1841      C1842   1.411       .  A
C1841      N1848   1.438       .  S
C1842      C1843   1.402       .  A
C1842      H1847   1.083       .  S
C1843      C1844   1.409       .  A
C1844      N1845   1.439       .  S
N1845      H1849   1.046       .  S
N1845      H1850   1.046       .  S
N1848      H1851   1.045       .  S
N1848      H1852   1.046       .  S
C1853      C1854   1.407   1_556  A
C1853      C1858   1.405       .  A
C1853      H1860   1.084       .  S
C1854      C1855   1.415       .  A
C1855      C1856   1.404       .  A
C1855      N1862   1.432       .  S
C1856      C1857   1.403   1_554  A
C1856      H1861   1.084   1_565  S
C1857      C1858   1.413       .  A
C1858      N1859   1.433       .  S
N1859      H1863   1.045       .  S
N1859      H1864   1.046       .  S
N1862      H1865   1.046   1_565  S
N1862      H1866   1.046       .  S
C1867      C1868   1.404       .  A
C1867      C1872   1.397   1_556  A
C1867      H1874   1.084   1_556  S
C1868      C1869   1.412       .  A
C1869      C1870   1.408       .  A
C1869      N1876   1.432       .  S
C1870      C1871   1.409   1_556  A
C1870      H1875   1.084       .  S
C1871      C1872   1.421       .  A
C1872      N1873   1.433       .  S
N1873      H1877   1.045       .  S
N1873      H1878   1.046       .  S
N1876      H1879   1.046       .  S
N1876      H1880   1.046       .  S
C1881      C1882   1.405       .  A
C1881      C1886   1.406       .  A
C1881      H1888   1.083       .  S
C1882      C1883   1.412       .  A
C1883      C1884   1.402       .  A
C1883      N1890   1.433       .  S
C1884      C1885   1.404       .  A
C1884      H1889   1.084       .  S
C1885      C1886   1.416       .  A
C1886      N1887   1.438       .  S
N1887      H1891   1.046       .  S
N1887      H1892   1.046       .  S
N1890      H1893   1.046   1_565  S
N1890      H1894   1.045   1_565  S
C1895      C1896   1.404       .  A
C1895      C1900   1.390       .  A
C1895      H1902   1.084       .  S
C1896      C1897   1.412       .  A
C1897      C1898   1.403       .  A
C1897      N1904   1.432       .  S
C1898      C1899   1.403       .  A
C1898      H1903   1.084       .  S
C1899      C1900   1.409       .  A
C1900      N1901   1.434       .  S
N1901      H1905   1.046       .  S
N1901      H1906   1.046       .  S
N1904      H1907   1.046       .  S
N1904      H1908   1.046       .  S
C1909      C1910   1.403       .  A
C1909      C1914   1.398   1_565  A
C1909      H1916   1.084       .  S
C1910      C1911   1.413       .  A
C1911      C1912   1.395   1_565  A
C1911      N1918   1.433       .  S
C1912      C1913   1.401       .  A
C1912      H1917   1.084       .  S
C1913      C1914   1.412       .  A
C1914      N1915   1.433       .  S
N1915      H1919   1.045       .  S
N1915      H1920   1.045       .  S
N1918      H1921   1.046       .  S
N1918      H1922   1.046       .  S
C1923      C1924   1.408       .  A
C1923      C1928   1.409       .  A
C1923      H1930   1.083       .  S
C1924      C1925   1.422       .  A
C1925      C1926   1.396       .  A
C1925      N1932   1.433       .  S
C1926      C1927   1.402       .  A
C1926      H1931   1.084       .  S
C1927      C1928   1.414       .  A
C1928      N1929   1.438       .  S
N1929      H1933   1.046       .  S
N1929      H1934   1.046       .  S
N1932      H1935   1.045       .  S
N1932      H1936   1.045       .  S
C1937      C1938   1.403       .  A
C1937      C1942   1.403       .  A
C1937      H1944   1.084       .  S
C1938      C1939   1.416       .  A
C1939      C1940   1.409       .  A
C1939      N1946   1.438       .  S
C1940      C1941   1.405       .  A
C1940      H1945   1.083       .  S
C1941      C1942   1.415       .  A
C1942      N1943   1.433       .  S
N1943      H1947   1.045       .  S
N1943      H1948   1.046       .  S
N1946      H1949   1.046       .  S
N1946      H1950   1.046       .  S
C1951      C1952   1.408       .  A
C1951      C1956   1.408       .  A
C1951      H1958   1.083       .  S
C1952      C1953   1.414       .  A
C1953      C1954   1.409       .  A
C1953      N1960   1.432       .  S
C1954      C1955   1.408       .  A
C1954      H1959   1.084   1_545  S
C1955      C1956   1.414       .  A
C1956      N1957   1.432       .  S
N1957      H1961   1.046       .  S
N1957      H1962   1.046       .  S
N1960      H1963   1.046       .  S
N1960      H1964   1.046       .  S
C1965      C1966   1.405       .  A
C1965      C1970   1.392       .  A
C1965      H1972   1.084       .  S
C1966      C1967   1.412       .  A
C1967      C1968   1.405       .  A
C1967      N1974   1.432       .  S
C1968      C1969   1.403       .  A
C1968      H1973   1.084       .  S
C1969      C1970   1.407       .  A
C1970      N1971   1.433       .  S
N1971      H1975   1.046       .  S
N1971      H1976   1.046       .  S
N1974      H1977   1.046       .  S
N1974      H1978   1.045       .  S
C1979      C1980   1.397       .  A
C1979      C1984   1.394   1_545  A
C1979      H1986   1.084       .  S
C1980      C1981   1.423   1_545  A
C1981      C1982   1.402       .  A
C1981      N1988   1.438       .  S
C1982      C1983   1.395       .  A
C1982      H1987   1.084   1_655  S
C1983      C1984   1.413       .  A
C1984      N1985   1.433       .  S
N1985      H1989   1.045       .  S
N1985      H1990   1.046   1_665  S
N1988      H1991   1.046   1_565  S
N1988      H1992   1.046       .  S
C1993      C1994   1.401       .  A
C1993      C1998   1.402       .  A
C1993      H2000   1.084       .  S
C1994      C1995   1.418       .  A
C1995      C1996   1.398       .  A
C1995      N2002   1.434       .  S
C1996      C1997   1.399       .  A
C1996      H2001   1.084       .  S
C1997      C1998   1.407       .  A
C1998      N1999   1.432       .  S
N1999      H2003   1.045       .  S
N1999      H2004   1.046       .  S
N2002      H2005   1.044       .  S
N2002      H2006   1.045       .  S
C2007      C2008   1.405       .  A
C2007      C2012   1.403       .  A
C2007      H2014   1.084       .  S
C2008      C2009   1.411       .  A
C2009      C2010   1.407       .  A
C2009      N2016   1.432       .  S
C2010      C2011   1.404       .  A
C2010      H2015   1.084       .  S
C2011      C2012   1.411       .  A
C2012      N2013   1.438       .  S
N2013      H2017   1.045       .  S
N2013      H2018   1.046       .  S
N2016      H2019   1.045       .  S
N2016      H2020   1.046       .  S
C2021      C2022   1.405       .  A
C2021      C2026   1.404       .  A
C2021      H2028   1.084       .  S
C2022      C2023   1.412       .  A
C2023      C2024   1.404       .  A
C2023      N2030   1.431       .  S
C2024      C2025   1.404       .  A
C2024      H2029   1.084       .  S
C2025      C2026   1.414       .  A
C2026      N2027   1.433       .  S
N2027      H2031   1.045       .  S
N2027      H2032   1.045       .  S
N2030      H2033   1.045       .  S
N2030      H2034   1.045       .  S
C2035      C2036   1.408       .  A
C2035      C2040   1.404       .  A
C2035      H2042   1.084       .  S
C2036      C2037   1.415       .  A
C2037      C2038   1.404       .  A
C2037      N2044   1.433       .  S
C2038      C2039   1.403       .  A
C2038      H2043   1.084       .  S
C2039      C2040   1.409       .  A
C2040      N2041   1.433   1_545  S
N2041      H2045   1.046       .  S
N2041      H2046   1.046       .  S
N2044      H2047   1.046       .  S
N2044      H2048   1.046       .  S
