geometry optimzed in LAMMPS
_audit_creation_date              2020-12-01 
_audit_creation_method            'lammps2cif' 
_symmetry_space_group_name_H-M    'P1' 
_symmetry_Int_Tables_number       1 
_symmetry_cell_setting            triclinic 
loop_ 
_symmetry_equiv_pos_as_xyz 
  x,y,z 
_cell_length_a                    52.2688121 
_cell_length_b                    25.770384621906864 
_cell_length_c                    27.719497408380967 
_cell_angle_alpha                 90.19901921307505 
_cell_angle_beta                  118.73783035819136 
_cell_angle_gamma                 90.02574678800458 
loop_ 
_atom_site_label 
_atom_site_type_symbol 
_atom_site_fract_x 
_atom_site_fract_y 
_atom_site_fract_z 
_atom_site_charge 
Fe1        Fe  0.10413142  0.42111126  0.43716233     1.65800
Fe2        Fe  0.12181466  0.31523102  0.38938129     1.73200
Fe3        Fe  0.06055038  0.38326830  0.30771993     1.54400
O4          O  0.03669978  0.41016363  0.34827442    -0.81400
O5          O  0.12493994  0.33063316  0.32012740    -0.79700
O6          O  0.06727381  0.39791548  0.43735347    -0.83900
O7          O  0.08156182  0.48306133  0.38512803    -0.78800
O8          O  0.04610392  0.30961213  0.30718149    -0.80500
O9          O  0.15870472  0.36394713  0.43363518    -0.83300
C10         C  0.07234560  0.49197136  0.33437902     0.97500
C11         C  0.04224848  0.40874172  0.39878337     1.04900
O12         O  0.09564526  0.37280223  0.37733117    -1.12300
O13         O  0.11953438  0.29244665  0.45809392    -0.74700
O14         O  0.12622516  0.36827055  0.49984730    -0.78200
O15         O  0.07313903  0.45749191  0.30267255    -0.78900
C16         C  0.12286306  0.31954316  0.49868214     0.96400
O17         O  0.14171958  0.44291577  0.43786145    -0.76800
O18         O  0.08736530  0.26300399  0.34481187    -0.82000
C19         C  0.10498972  0.33871015  0.27135391     0.99000
C20         C  0.05957647  0.26674063  0.31725375     1.04900
O21         O  0.07998421  0.35699518  0.26027804    -0.77700
C22         C  0.16204681  0.41318526  0.44204630     1.03200
Fe23       Fe  0.10600326  0.07020392  0.93493684     1.65800
Fe24       Fe  0.12038326  0.17231162  0.87850146     1.73200
Fe25       Fe  0.05437673  0.11746421  0.81584400     1.54400
O26         O  0.05975142  0.04379402  0.79565129    -0.81400
O27         O  0.08665385  0.22672359  0.83650374    -0.79700
O28         O  0.08077900  0.00946140  0.88002023    -0.83900
O29         O  0.07286384  0.09290046  0.94806872    -0.78800
O30         O  0.06743937  0.14666754  0.76003982    -0.80500
O31         O  0.12310571  0.19995278  0.95039148    -0.83300
C32         C  0.04645769  0.08418263  0.91500099     0.97500
C33         C  0.06555679  0.00520392  0.82746080     1.04900
O34         O  0.09391268  0.11887817  0.87572795    -1.12300
O35         O  0.15782420  0.12454372  0.91994590    -0.74700
O36         O  0.14069473  0.04704394  0.92582342    -0.78200
O37         O  0.03628583  0.08710497  0.86317138    -0.78900
C38         C  0.16113912  0.07568626  0.92901852     0.96400
O39         O  0.13093975  0.12565972  0.99594582    -0.76800
O40         O  0.11614829  0.14647063  0.80504651    -0.82000
C41         C  0.06053184  0.22953473  0.82864318     0.99000
C42         C  0.09206442  0.15073415  0.76102486     1.04900
O43         O  0.04763834  0.19094509  0.83530115    -0.77700
C44         C  0.12831062  0.17504458  0.99347527     1.03200
Fe45       Fe  0.39787337  0.56432461  0.54697750     1.65800
Fe46       Fe  0.38343366  0.67155449  0.59742030     1.73200
Fe47       Fe  0.44253717  0.59917006  0.67726598     1.54400
O48         O  0.42763167  0.52658954  0.68074223    -0.81400
O49         O  0.41922241  0.72095374  0.64381346    -0.79700
O50         O  0.41853985  0.50062887  0.59795425    -0.83900
O51         O  0.43561970  0.58326772  0.54764585    -0.78800
O52         O  0.42345593  0.62728997  0.72419642    -0.80500
O53         O  0.38840985  0.69341670  0.53188229    -0.83300
C54         C  0.46041929  0.57128861  0.58653762     0.97500
C55         C  0.42753838  0.49164191  0.64865894     1.04900
O56         O  0.40780318  0.61184483  0.60803609    -1.12300
O57         O  0.34483385  0.62695582  0.55006589    -0.74700
O58         O  0.35976304  0.54635412  0.54568785    -0.78200
O59         O  0.46573888  0.56976308  0.63685125    -0.78900
C60         C  0.34006222  0.57803750  0.54062057     0.96400
O61         O  0.37702738  0.61962912  0.48558389    -0.76800
O62         O  0.37878903  0.65530005  0.66483958    -0.82000
C63         C  0.44695468  0.71538218  0.66941173     0.99000
C64         C  0.39848146  0.64544815  0.71334927     1.04900
O65         O  0.45924206  0.67137973  0.67889547    -0.77700
C66         C  0.38316040  0.66754925  0.48954398     1.03200
Fe67       Fe  0.39911947  0.91590658  0.04823131     1.65800
Fe68       Fe  0.38110032  0.81510548  0.10044319     1.73200
Fe69       Fe  0.44724488  0.86918584  0.17126975     1.54400
O70         O  0.46824614  0.89516374  0.12732292    -0.81400
O71         O  0.38250759  0.83999078  0.17111267    -0.79700
O72         O  0.43343952  0.89004208  0.04033259    -0.83900
O73         O  0.42449344  0.97587246  0.10287763    -0.78800
O74         O  0.45484779  0.79462977  0.15644456    -0.80500
O75         O  0.34490157  0.86503171  0.05652925    -0.83300
C76         C  0.43832736  0.98104903  0.15529647     0.97500
C77         C  0.45979590  0.89610246  0.07590085     1.04900
O78         O  0.40888063  0.86772973  0.10749173    -1.12300
O79         O  0.38090028  0.78758534  0.03113008    -0.74700
O80         O  0.37402640  0.86176547  0.98615059    -0.78200
O81         O  0.44151544  0.94395756  0.18753447    -0.78900
C82         C  0.37655802  0.81250799  0.98871704     0.96400
O83         O  0.36361627  0.94188450  0.05323996    -0.76800
O84         O  0.41342078  0.75912281  0.14471591    -0.82000
C85         C  0.40529562  0.83726127  0.21742685     0.99000
C86         C  0.44029593  0.75586280  0.15740731     1.04900
O87         O  0.43095059  0.84367727  0.22352420    -0.77700
C88         C  0.34247398  0.91412188  0.04831816     1.03200
C89         C  0.37325574  0.70227870  0.79739088     0.30000
C90         C  0.35598558  0.73703613  0.80854743    -0.36300
C91         C  0.36670049  0.75098793  0.86396162     0.16000
C92         C  0.39222857  0.73079804  0.90550255     0.21800
C93         C  0.40947247  0.69610846  0.89438130    -0.34400
C94         C  0.39909188  0.68306233  0.83891663     0.15900
O95         O  0.36890677  0.68840385  0.74820868    -0.26400
C96         C  0.39228323  0.66014487  0.75813831     0.05700
C97         C  0.41177265  0.65528592  0.81399832    -0.31300
O98         O  0.39848171  0.74951917  0.95417544    -0.23200
C99         C  0.37701476  0.78281511  0.94384958    -0.03100
C100        C  0.35660475  0.78572115  0.88833375    -0.17600
H101        H  0.33621934  0.75368085  0.77603742     0.20400
H102        H  0.43005868  0.68170608  0.92658666     0.18800
H103        H  0.43306311  0.63720059  0.83316820     0.18700
H104        H  0.33726778  0.80965173  0.86897762     0.14600
C105        C  0.38426259  0.77080936  0.30111176     0.30000
C106        C  0.36793105  0.73357562  0.31123839    -0.36300
C107        C  0.37797661  0.72118528  0.36643202     0.16000
C108        C  0.40206092  0.74483405  0.40874300     0.21800
C109        C  0.41885785  0.78126857  0.39853306    -0.34400
C110        C  0.40911125  0.79290666  0.34307510     0.15900
O111        O  0.37921324  0.78643675  0.25240673    -0.26400
C112        C  0.40123999  0.81836253  0.26283619     0.05700
C113        C  0.42076958  0.82385857  0.31862650    -0.31300
O114        O  0.40677182  0.72896555  0.45731711    -0.23200
C115        C  0.38577493  0.69419014  0.44582221    -0.03100
C116        C  0.36737925  0.68709404  0.38995554    -0.17600
H117        H  0.34888505  0.71521416  0.27828216     0.20400
H118        H  0.43819550  0.79896291  0.43142827     0.18800
H119        H  0.44091427  0.84583562  0.33797963     0.18700
H120        H  0.34857451  0.66180167  0.36988604     0.14600
C121        C  0.23380183  0.03876648  0.97003843     0.30000
C122        C  0.26327519  0.04500621  0.98388180    -0.36300
C123        C  0.28075747  0.00025368  0.00226314     0.16000
C124        C  0.27009529  0.95253954  0.00674747     0.21800
C125        C  0.24068718  0.94633803  0.99298938    -0.34400
C126        C  0.22323323  0.99098489  0.97456655     0.15900
O127        O  0.21352158  0.07536823  0.95260524    -0.26400
C128        C  0.18962767  0.05048405  0.94574600     0.05700
C129        C  0.19452023  0.99795480  0.95876598    -0.31300
O130        O  0.29020739  0.91576431  0.02406715    -0.23200
C131        C  0.31416949  0.94024567  0.03090558    -0.03100
C132        C  0.30950737  0.99289266  0.01803987    -0.17600
H133        H  0.27199348  0.08212783  0.98059489     0.20400
H134        H  0.23196830  0.90921700  0.99628181     0.18800
H135        H  0.17915568  0.96914053  0.95761992     0.18700
H136        H  0.32502479  0.02147343  0.01938475     0.14600
C137        C  0.00435451  0.00683947  0.95079499     0.30000
C138        C  0.48584802  0.96557112  0.94430932    -0.36300
C139        C  0.48787776  0.94480072  0.99258016     0.16000
C140        C  0.00650392  0.96388262  0.04393549     0.21800
C141        C  0.02537105  0.00520803  0.05096361    -0.34400
C142        C  0.02330598  0.02582771  0.00253892     0.15900
O143        O  0.00768089  0.02943497  0.91161670    -0.26400
C144        C  0.02901610  0.06339734  0.93866945     0.05700
C145        C  0.03922464  0.06332575  0.99525658    -0.31300
O146        O  0.50171612  0.94370714  0.08283666    -0.23200
C147        C  0.47956621  0.91134362  0.05510108    -0.03100
C148        C  0.47067463  0.90952828  0.99905881    -0.17600
H149        H  0.47060305  0.95076830  0.90394677     0.20400
H150        H  0.04004002  0.02108923  0.09115372     0.18800
H151        H  0.05780360  0.08397308  0.02690933     0.18700
H152        H  0.45156099  0.89062343  0.96676886     0.14600
C153        C  0.50204904  0.80615668  0.74513387     0.30000
C154        C  0.52755976  0.82471610  0.79082154    -0.36300
C155        C  0.03469326  0.87657098  0.78829602     0.16000
C156        C  0.01830676  0.90763008  0.74347289     0.21800
C157        C  0.99270461  0.88918383  0.69802847    -0.34400
C158        C  0.48512125  0.83791463  0.70129837     0.15900
O159        O  0.49089721  0.75916188  0.73919661    -0.26400
C160        C  0.46621063  0.76100874  0.69148234     0.05700
C161        C  0.46136840  0.80917768  0.66608605    -0.31300
O162        O  0.02823371  0.95558299  0.75080146    -0.23200
C163        C  0.05114814  0.95581692  0.80119808    -0.03100
C164        C  0.05623005  0.90757203  0.82665398    -0.17600
H165        H  0.54043351  0.80052016  0.82613930     0.20400
H166        H  0.97926875  0.91387680  0.66353125     0.18800
H167        H  0.44322512  0.82101488  0.62726720     0.18700
H168        H  0.07247089  0.89748988  0.86806872     0.14600
C169        C  0.00921615  0.32897276  0.78440925     0.30000
C170        C  0.48703211  0.36028392  0.78441644    -0.36300
C171        C  0.47067131  0.38933845  0.73657737     0.16000
C172        C  0.47563960  0.38772091  0.69200050     0.21800
C173        C  0.99806375  0.35699503  0.69230041    -0.34400
C174        C  0.01482551  0.32882365  0.74057763     0.15900
O175        O  0.02597772  0.29631313  0.82336705    -0.26400
C176        C  0.04319350  0.27633254  0.80505325     0.05700
C177        C  0.03732597  0.29527591  0.75386895    -0.31300
O178        O  0.45884189  0.42007717  0.65281844    -0.23200
C179        C  0.44301862  0.44310764  0.67258545    -0.03100
C180        C  0.44944915  0.42544169  0.72460152    -0.17600
H181        H  0.48278165  0.36150963  0.81895585     0.20400
H182        H  0.00252116  0.35624628  0.65799608     0.18800
H183        H  0.04655067  0.28267546  0.72820388     0.18700
H184        H  0.44133689  0.44001725  0.75136356     0.14600
C185        C  0.12049172  0.23620749  0.59579687     0.30000
C186        C  0.12601405  0.19120021  0.62771337    -0.36300
C187        C  0.11053157  0.18649489  0.65716221     0.16000
C188        C  0.09046382  0.22291191  0.65420738     0.21800
C189        C  0.08531650  0.26820038  0.62309652    -0.34400
C190        C  0.10140848  0.27360833  0.59505812     0.15900
O191        O  0.13173936  0.24798965  0.56354122    -0.26400
C192        C  0.12041444  0.29430676  0.54354099     0.05700
C193        C  0.10154353  0.31221262  0.56195278    -0.31300
O194        O  0.07949353  0.21214669  0.68695915    -0.23200
C195        C  0.09289599  0.16861127  0.71180165    -0.03100
C196        C  0.11258301  0.15091851  0.69515150    -0.17600
H197        H  0.14156361  0.16227552  0.63001729     0.20400
H198        H  0.07027628  0.29771784  0.62182172     0.18800
H199        H  0.08839341  0.34705757  0.54977853     0.18700
H200        H  0.12750466  0.11855425  0.71126412     0.14600
C201        C  0.12769905  0.27185927  0.18809265     0.30000
C202        C  0.14150469  0.23093411  0.17591049    -0.36300
C203        C  0.13521789  0.22626222  0.12082260     0.16000
C204        C  0.11711951  0.26042685  0.08074656     0.21800
C205        C  0.10301559  0.30108024  0.09283304    -0.34400
C206        C  0.10875896  0.30499600  0.14779165     0.15900
O207        O  0.12945336  0.28135715  0.23632170    -0.26400
C208        C  0.11112680  0.32066269  0.22719513     0.05700
C209        C  0.09741315  0.33691541  0.17255169    -0.31300
O210        O  0.11359990  0.24798369  0.03166972    -0.23200
C211        C  0.12930161  0.20486771  0.04006674    -0.03100
C212        C  0.14312631  0.18934586  0.09485893    -0.17600
H213        H  0.15551913  0.20366506  0.20702090     0.20400
H214        H  0.08793569  0.32686741  0.06121883     0.18800
H215        H  0.08106837  0.36682051  0.15368147     0.18700
H216        H  0.15634324  0.15517767  0.11260152     0.14600
C217        C  0.48919138  0.07448559  0.23726225     0.30000
C218        C  0.01465998  0.09206035  0.28230907    -0.36300
C219        C  0.02306443  0.14321476  0.27992585     0.16000
C220        C  0.50701558  0.17505952  0.23653345     0.21800
C221        C  0.48147445  0.15749238  0.19043780    -0.34400
C222        C  0.47335726  0.10602574  0.19252803     0.15900
O223        O  0.47781508  0.02778216  0.23062480    -0.26400
C224        C  0.45453186  0.02895497  0.18081301     0.06100
C225        C  0.45070296  0.07665274  0.15486749    -0.31300
O226        O  0.01777228  0.22249576  0.24356981    -0.23200
C227        C  0.04158016  0.22043095  0.29260784    -0.03100
C228        C  0.04625132  0.17187640  0.31702930    -0.17600
H229        H  0.02728657  0.06726166  0.31723139     0.20400
H230        H  0.46878217  0.18229679  0.15555886     0.18800
H231        H  0.43424209  0.08751452  0.11389377     0.18700
H232        H  0.06347300  0.16012976  0.35695688     0.14600
C233        C  0.49029672  0.65455439  0.19911757     0.30000
C234        C  0.01339484  0.62574294  0.20051945    -0.36300
C235        C  0.02875095  0.59465621  0.24716617     0.16000
C236        C  0.02208642  0.59291687  0.28963858     0.21800
C237        C  0.99863182  0.62122431  0.28752517    -0.34400
C238        C  0.48257991  0.65071834  0.24010529     0.15900
O239        O  0.47481249  0.68962028  0.16196686    -0.26400
C240        C  0.45630476  0.70728949  0.17836072     0.05700
C241        C  0.46000035  0.68424808  0.22656623    -0.31300
O242        O  0.03855375  0.55982371  0.32828740    -0.23200
C243        C  0.05584490  0.53964285  0.31022253    -0.03100
C244        C  0.05068895  0.55984873  0.25984894    -0.17600
H245        H  0.01911054  0.62749109  0.16785744     0.20400
H246        H  0.99296482  0.61955665  0.32026116     0.18800
H247        H  0.44959446  0.69454901  0.25088822     0.18700
H248        H  0.06034817  0.54810350  0.23465981     0.14600
C249        C  0.27904499  0.49757595  0.49994798     0.30000
C250        C  0.26427632  0.44980402  0.48735409    -0.36300
C251        C  0.23520178  0.45120745  0.47646576     0.16000
C252        C  0.22158462  0.49664442  0.47769490     0.21800
C253        C  0.23635655  0.54458078  0.49012788    -0.34400
C254        C  0.26554974  0.54315586  0.50122391     0.15900
O255        O  0.30651391  0.50460156  0.51280881    -0.26400
C256        C  0.31094623  0.55532793  0.52262080     0.05700
C257        C  0.28613797  0.58154243  0.51585161    -0.31300
O258        O  0.19430412  0.48893881  0.46620900    -0.23200
C259        C  0.19037179  0.43793216  0.45752429    -0.03100
C260        C  0.21512664  0.41239709  0.46340525    -0.17600
H261        H  0.27484099  0.41394069  0.48657120     0.20400
H262        H  0.22587334  0.58036820  0.49142348     0.18800
H263        H  0.28379536  0.62243453  0.52181576     0.18700
H264        H  0.21785148  0.37143263  0.45845392     0.14600
C265        C  0.00507907  0.48539029  0.44706925     0.30000
C266        C  0.49539998  0.53245391  0.45689000    -0.36300
C267        C  0.49300784  0.53583691  0.50518104     0.16000
C268        C  0.99943398  0.49538048  0.54137813     0.21800
C269        C  0.00870439  0.44745319  0.53096786    -0.34400
C270        C  0.01106259  0.44426014  0.48257109     0.15900
O271        O  0.01141510  0.47531125  0.40716737    -0.26400
C272        C  0.02144875  0.42682266  0.41678203     0.05700
C273        C  0.02139509  0.40565546  0.46304844    -0.31300
O274        O  0.49206576  0.50489918  0.58004330    -0.23200
C275        C  0.48152369  0.55305605  0.56940584    -0.03100
C276        C  0.48200389  0.57417844  0.52360308    -0.17600
H277        H  0.49042447  0.56493622  0.42915898     0.20400
H278        H  0.01334314  0.41468555  0.55824055     0.18800
H279        H  0.03107641  0.36945743  0.48331706     0.18700
H280        H  0.47207136  0.61000928  0.50270373     0.14600
Fe281      Fe  0.60422993  0.42090153  0.43751165     1.65800
Fe282      Fe  0.62196274  0.31502502  0.38979963     1.73200
Fe283      Fe  0.56070123  0.38302572  0.30805358     1.54400
O284        O  0.53678930  0.40966212  0.34856638    -0.81400
O285        O  0.62513233  0.33045809  0.32059849    -0.79700
O286        O  0.56736965  0.39765994  0.43771071    -0.83900
O287        O  0.58158545  0.48281256  0.38550620    -0.78800
O288        O  0.54630442  0.30932301  0.30738934    -0.80500
O289        O  0.65881811  0.36373199  0.43408026    -0.83300
C290        C  0.57234283  0.49171626  0.33475433     0.97500
C291        C  0.54231712  0.40825057  0.39906526     1.04900
O292        O  0.59577069  0.37257933  0.37769453    -1.12300
O293        O  0.61961590  0.29225803  0.45844798    -0.74700
O294        O  0.62636815  0.36809472  0.50018654    -0.78200
O295        O  0.57323188  0.45730322  0.30309132    -0.78900
C296        C  0.62293694  0.31938905  0.49900899     0.96400
O297        O  0.64182509  0.44273277  0.43817717    -0.76800
O298        O  0.58757615  0.26276109  0.34521910    -0.82000
C299        C  0.60523633  0.33874457  0.27182570     0.99000
C300        C  0.55979641  0.26647166  0.31757421     1.04900
O301        O  0.58022046  0.35700395  0.26070112    -0.77700
C302        C  0.66215541  0.41297258  0.44239724     1.03200
Fe303      Fe  0.60612544  0.07071534  0.93546545     1.65800
Fe304      Fe  0.62041691  0.17272502  0.87875222     1.73200
Fe305      Fe  0.55440401  0.11790278  0.81641445     1.54400
O306        O  0.55975873  0.04419320  0.79627330    -0.81400
O307        O  0.58667690  0.22713811  0.83683218    -0.79700
O308        O  0.58086109  0.00989872  0.88066355    -0.83900
O309        O  0.57303545  0.09345977  0.94873349    -0.78800
O310        O  0.56736826  0.14703305  0.76043913    -0.80500
O311        O  0.62325517  0.20046792  0.95067979    -0.83300
C312        C  0.54663188  0.08462469  0.91574756     0.97500
C313        C  0.56559000  0.00561412  0.82811051     1.04900
O314        O  0.59397184  0.11933729  0.87618727    -1.12300
O315        O  0.65786440  0.12496267  0.92007627    -0.74700
O316        O  0.64077247  0.04751495  0.92623631    -0.78200
O317        O  0.53640448  0.08757792  0.86390639    -0.78900
C318        C  0.66118736  0.07612080  0.92923700     0.96400
O319        O  0.63111471  0.12623101  0.99634713    -0.76800
O320        O  0.61607500  0.14676623  0.80527790    -0.82000
C321        C  0.56057599  0.23000084  0.82908033     0.99000
C322        C  0.59196809  0.15103357  0.76131388     1.04900
O323        O  0.54768954  0.19143921  0.83582131    -0.77700
C324        C  0.62850824  0.17561802  0.99381796     1.03200
Fe325      Fe  0.89807809  0.56413224  0.54683037     1.65800
Fe326      Fe  0.88337723  0.67111908  0.59726557     1.73200
Fe327      Fe  0.94252827  0.59890115  0.67725720     1.54400
O328        O  0.92772282  0.52618794  0.68060468    -0.81400
O329        O  0.91905605  0.72063447  0.64379486    -0.79700
O330        O  0.91870940  0.50042231  0.59778373    -0.83900
O331        O  0.93589936  0.58331255  0.54786387    -0.78800
O332        O  0.92332119  0.62679098  0.72401794    -0.80500
O333        O  0.88846034  0.69321444  0.53183610    -0.83300
C334        C  0.96068091  0.57142475  0.58687508     0.97500
C335        C  0.92762930  0.49131503  0.64844087     1.04900
O336        O  0.90783417  0.61151794  0.60793646    -1.12300
O337        O  0.84487932  0.62638464  0.54975021    -0.74700
O338        O  0.85988484  0.54590228  0.54513642    -0.78200
O339        O  0.96588968  0.56975572  0.63710612    -0.78900
C340        C  0.84015415  0.57747932  0.54015203     0.96400
O341        O  0.87727907  0.61947731  0.48546305    -0.76800
O342        O  0.87863707  0.65467915  0.66461982    -0.82000
C343        C  0.94678871  0.71515178  0.66943015     0.99000
C344        C  0.89831817  0.64480525  0.71314988     1.04900
O345        O  0.95913067  0.67120164  0.67897015    -0.77700
C346        C  0.88334443  0.66742698  0.48951172     1.03200
Fe347      Fe  0.89905177  0.91570226  0.04757142     1.65800
Fe348      Fe  0.88099264  0.81518815  0.10021587     1.73200
Fe349      Fe  0.94712194  0.86940201  0.17086090     1.54400
O350        O  0.96814590  0.89530962  0.12694339    -0.81400
O351        O  0.88245826  0.84015603  0.17098032    -0.79700
O352        O  0.93342917  0.88963497  0.03995819    -0.83900
O353        O  0.92437795  0.97586102  0.10208099    -0.78800
O354        O  0.95478893  0.79483136  0.15624914    -0.80500
O355        O  0.84480946  0.86516387  0.05630252    -0.83300
C356        C  0.93813872  0.98121578  0.15449510     0.97500
C357        C  0.95975441  0.89597203  0.07554664     1.04900
O358        O  0.90875950  0.86776656  0.10704405    -1.12300
O359        O  0.88066707  0.78742119  0.03083312    -0.74700
O360        O  0.87401015  0.86140908  0.98561849    -0.78200
O361        O  0.94128661  0.94422502  0.18682785    -0.78900
C362        C  0.87638313  0.81213224  0.98833196     0.96400
O363        O  0.86346875  0.94184407  0.05219260    -0.76800
O364        O  0.91336051  0.75925746  0.14448912    -0.82000
C365        C  0.90526903  0.83756745  0.21729150     0.99000
C366        C  0.94024693  0.75605005  0.15721622     1.04900
O367        O  0.93089459  0.84396841  0.22324665    -0.77700
C368        C  0.84235568  0.91418637  0.04759877     1.03200
C369        C  0.87290362  0.70066966  0.79740353     0.30000
C370        C  0.85537511  0.73478214  0.80860642    -0.36300
C371        C  0.86626991  0.74940537  0.86390741     0.16000
C372        C  0.89222567  0.73042991  0.90532175     0.21800
C373        C  0.90969765  0.69632936  0.89416888    -0.34400
C374        C  0.89911793  0.68260838  0.83881672     0.15900
O375        O  0.86844502  0.68653706  0.74819821    -0.26400
C376        C  0.89211775  0.65923220  0.75802486     0.05700
C377        C  0.91190564  0.65526804  0.81382957    -0.31300
O378        O  0.89862781  0.74972183  0.95385693    -0.23200
C379        C  0.87681445  0.78217556  0.94357220    -0.03100
C380        C  0.85601679  0.78392467  0.88821565    -0.17600
H381        H  0.83528457  0.75054627  0.77616609     0.20400
H382        H  0.93059322  0.68290561  0.92623147     0.18800
H383        H  0.93344911  0.63815707  0.83286126     0.18700
H384        H  0.83635221  0.80702715  0.86891337     0.14600
C385        C  0.88391784  0.77274669  0.30150904     0.30000
C386        C  0.86706168  0.73664968  0.31166558    -0.36300
C387        C  0.87761733  0.72278670  0.36665125     0.16000
C388        C  0.90269017  0.74405196  0.40882734     0.21800
C389        C  0.91996498  0.77936362  0.39853807    -0.34400
C390        C  0.90967341  0.79245752  0.34323042     0.15900
O391        O  0.87857132  0.78911766  0.25284415    -0.26400
C392        C  0.90128718  0.81915108  0.26300845     0.05700
C393        C  0.92155493  0.82266295  0.31862076    -0.31300
O394        O  0.90778213  0.72719980  0.45733366    -0.23200
C395        C  0.88601450  0.69414916  0.44586791    -0.03100
C396        C  0.86672822  0.68919482  0.39010277    -0.17600
H397        H  0.84727156  0.72010299  0.27884307     0.20400
H398        H  0.94005262  0.79514411  0.43124515     0.18800
H399        H  0.94234739  0.84266568  0.33767785     0.18700
H400        H  0.84717759  0.66566737  0.37012017     0.14600
C401        C  0.73371504  0.03897980  0.96929827     0.30000
C402        C  0.76309513  0.04504339  0.98240388    -0.36300
C403        C  0.78060738  0.00033778  0.00104141     0.16000
C404        C  0.77005501  0.95283416  0.00643098     0.21800
C405        C  0.74074062  0.94680509  0.99337757    -0.34400
C406        C  0.72326049  0.99139761  0.97471181     0.15900
O407        O  0.71342993  0.07557913  0.95181883    -0.26400
C408        C  0.68965026  0.05088018  0.94581815     0.05700
C409        C  0.69462230  0.99848540  0.95944602    -0.31300
O410        O  0.79018272  0.91608384  0.02397207    -0.23200
C411        C  0.81404997  0.94036257  0.03004951    -0.03100
C412        C  0.80930559  0.99285578  0.01643747    -0.17600
H413        H  0.77172867  0.08200797  0.97843502     0.20400
H414        H  0.73211326  0.90985344  0.99740403     0.18800
H415        H  0.67935764  0.96983523  0.95901579     0.18700
H416        H  0.82474584  0.02126891  0.01714876     0.14600
C417        C  0.50452175  0.00713055  0.95143481     0.30000
C418        C  0.98580435  0.96512026  0.94383622    -0.36300
C419        C  0.98783308  0.94454054  0.99217996     0.16000
C420        C  0.50666487  0.96381627  0.04442463     0.21800
C421        C  0.52565915  0.00497222  0.05161512    -0.34400
C422        C  0.52359318  0.02578417  0.00326317     0.15900
O423        O  0.50782563  0.02990512  0.91231484    -0.26400
C424        C  0.52926542  0.06365097  0.93949111     0.05700
C425        C  0.53957579  0.06324483  0.99610735    -0.31300
O426        O  0.00156267  0.94387059  0.08239391    -0.23200
C427        C  0.97953267  0.91124545  0.05477949    -0.03100
C428        C  0.97071772  0.90915979  0.99877765    -0.17600
H429        H  0.97065828  0.95004496  0.90353994     0.20400
H430        H  0.54041634  0.02060814  0.09187623     0.18800
H431        H  0.55822560  0.08369105  0.02782008     0.18700
H432        H  0.95168835  0.89000058  0.96654894     0.14600
C433        C  0.00184099  0.80596127  0.74497599     0.30000
C434        C  0.02736000  0.82452949  0.79060561    -0.36300
C435        C  0.53479873  0.87687615  0.78873638     0.16000
C436        C  0.51833208  0.90804334  0.74406077     0.21800
C437        C  0.49274232  0.88961243  0.69858139    -0.34400
C438        C  0.98498756  0.83759807  0.70096820     0.15900
O439        O  0.99063742  0.75904370  0.73922060    -0.26400
C440        C  0.96599057  0.76081644  0.69145031     0.05700
C441        C  0.96121806  0.80885967  0.66582731    -0.31300
O442        O  0.52819829  0.95604220  0.75151635    -0.23200
C443        C  0.55115847  0.95622084  0.80185484    -0.03100
C444        C  0.55632513  0.90787917  0.82715811    -0.17600
H445        H  0.04017125  0.80043323  0.82604720     0.20400
H446        H  0.47924727  0.91438977  0.66420988     0.18800
H447        H  0.94313450  0.82058524  0.62687959     0.18700
H448        H  0.57264245  0.89770554  0.86848346     0.14600
C449        C  0.50933232  0.32959307  0.78492263     0.30000
C450        C  0.98691970  0.35965439  0.78392361    -0.36300
C451        C  0.97055232  0.38871051  0.73609243     0.16000
C452        C  0.97550192  0.38708095  0.69149289     0.21800
C453        C  0.49822264  0.35766665  0.69284913    -0.34400
C454        C  0.51496683  0.32947203  0.74112119     0.15900
O455        O  0.52604715  0.29684946  0.82383485    -0.26400
C456        C  0.54325761  0.27683757  0.80552219     0.05700
C457        C  0.53743719  0.29585725  0.75439067    -0.31300
O458        O  0.95875646  0.41954180  0.65238590    -0.23200
C459        C  0.94299170  0.44265784  0.67222873    -0.03100
C460        C  0.94939429  0.42492310  0.72420603    -0.17600
H461        H  0.98270210  0.36092437  0.81850166     0.20400
H462        H  0.50268309  0.35690218  0.65854871     0.18800
H463        H  0.54666367  0.28325485  0.72872907     0.18700
H464        H  0.94133630  0.43955832  0.75103065     0.14600
C465        C  0.62046125  0.23623497  0.59612697     0.30000
C466        C  0.62600392  0.19131136  0.62815537    -0.36300
C467        C  0.61045513  0.18661540  0.65747192     0.16000
C468        C  0.59031240  0.22296669  0.65431308     0.21800
C469        C  0.58513922  0.26818178  0.62307930    -0.34400
C470        C  0.60129277  0.27357846  0.59515518     0.15900
O471        O  0.63177737  0.24798608  0.56398091    -0.26400
C472        C  0.62040880  0.29422965  0.54380941     0.05700
C473        C  0.60144015  0.31212101  0.56199803    -0.31300
O474        O  0.57930964  0.21223573  0.68702330    -0.23200
C475        C  0.59276426  0.16878642  0.71202416    -0.03100
C476        C  0.61251480  0.15112229  0.69552468    -0.17600
H477        H  0.64162036  0.16244331  0.63064345     0.20400
H478        H  0.57004082  0.29765833  0.62164063     0.18800
H479        H  0.58825347  0.34691899  0.54967090     0.18700
H480        H  0.62749463  0.11885375  0.71180163     0.14600
C481        C  0.62817041  0.27257829  0.18856227     0.30000
C482        C  0.64209480  0.23186284  0.17638161    -0.36300
C483        C  0.63567120  0.22708412  0.12123162     0.16000
C484        C  0.61733968  0.26097546  0.08109153     0.21800
C485        C  0.60312736  0.30142753  0.09318342    -0.34400
C486        C  0.60900677  0.30543308  0.14821070     0.15900
O487        O  0.62996887  0.28202530  0.23683104    -0.26400
C488        C  0.61145174  0.32100920  0.22768166     0.05700
C489        C  0.59757268  0.33711332  0.17298887    -0.31300
O490        O  0.61370245  0.24842749  0.03196310    -0.23200
C491        C  0.62956074  0.20551366  0.04040060    -0.03100
C492        C  0.64361004  0.19022933  0.09526384    -0.17600
H493        H  0.65627583  0.20478314  0.20753638     0.20400
H494        H  0.58785564  0.32696250  0.06152595     0.18800
H495        H  0.58103568  0.36670529  0.15408572     0.18700
H496        H  0.65698227  0.15623448  0.11305346     0.14600
C497        C  0.98885712  0.07482860  0.23662365     0.30000
C498        C  0.51509695  0.09165762  0.28274558    -0.36300
C499        C  0.52342136  0.14286370  0.28034827     0.16000
C500        C  0.00681949  0.17532854  0.23593600     0.21800
C501        C  0.98137613  0.15769898  0.18964215    -0.34400
C502        C  0.97318582  0.10626334  0.19171622     0.15900
O503        O  0.97745220  0.02814421  0.22996340    -0.26400
C504        C  0.95431155  0.02919428  0.17996058     0.06100
C505        C  0.95060729  0.07681658  0.15391039    -0.31300
O506        O  0.51790828  0.22225946  0.24414887    -0.23200
C507        C  0.54183214  0.22014501  0.29299668    -0.03100
C508        C  0.54664963  0.17152189  0.31731067    -0.17600
H509        H  0.52784733  0.06679090  0.31753393     0.20400
H510        H  0.96881491  0.18242776  0.15462088     0.18800
H511        H  0.93427606  0.08758459  0.11279867     0.18700
H512        H  0.56398695  0.15973138  0.35709902     0.14600
C513        C  0.99027221  0.65478970  0.19888105     0.30000
C514        C  0.51355807  0.62573625  0.20105536    -0.36300
C515        C  0.52870845  0.59434785  0.24751792     0.16000
C516        C  0.52171423  0.59209017  0.28954392     0.21800
C517        C  0.49809817  0.62012763  0.28709312    -0.34400
C518        C  0.98289620  0.65147627  0.24035697     0.15900
O519        O  0.97459346  0.68955969  0.16151554    -0.26400
C520        C  0.95629844  0.70753872  0.17828699     0.05700
C521        C  0.96034186  0.68502361  0.22695322    -0.31300
O522        O  0.53811648  0.55892269  0.32816951    -0.23200
C523        C  0.55569950  0.53923376  0.31052911    -0.03100
C524        C  0.55078520  0.55979641  0.26044697    -0.17600
H525        H  0.51955421  0.62793470  0.16878792     0.20400
H526        H  0.49218837  0.61808819  0.31949081     0.18800
H527        H  0.95016631  0.69567195  0.25158394     0.18700
H528        H  0.56073567  0.54850501  0.23562051     0.14600
C529        C  0.77910127  0.49705186  0.49941328     0.30000
C530        C  0.76426593  0.44933602  0.48669907    -0.36300
C531        C  0.73525471  0.45078987  0.47621801     0.16000
C532        C  0.72175870  0.49621716  0.47792342     0.21800
C533        C  0.73659338  0.54407923  0.49047273    -0.34400
C534        C  0.76571419  0.54260488  0.50116300     0.15900
O535        O  0.80654318  0.50404892  0.51202441    -0.26400
C536        C  0.81104617  0.55473126  0.52213279     0.05700
C537        C  0.78632501  0.58092775  0.51581554    -0.31300
O538        O  0.69451911  0.48858819  0.46673656    -0.23200
C539        C  0.69048763  0.43763475  0.45778011    -0.03100
C540        C  0.71513778  0.41205827  0.46317625    -0.17600
H541        H  0.77473608  0.41347924  0.48554793     0.20400
H542        H  0.72620926  0.57985435  0.49215537     0.18800
H543        H  0.78406317  0.62176870  0.52214086     0.18700
H544        H  0.71776122  0.37112279  0.45789127     0.14600
C545        C  0.50468565  0.48453031  0.44665747     0.30000
C546        C  0.99600454  0.53336831  0.45766969    -0.36300
C547        C  0.99356609  0.53653524  0.50592692     0.16000
C548        C  0.49908104  0.49492038  0.54098378     0.21800
C549        C  0.50853932  0.44702527  0.53091624    -0.34400
C550        C  0.51088556  0.44363072  0.48251013     0.15900
O551        O  0.51109833  0.47438773  0.40686835    -0.26400
C552        C  0.52141779  0.42609851  0.41692257     0.05700
C553        C  0.52145420  0.40510228  0.46334147    -0.31300
O554        O  0.99232339  0.50515030  0.58033972    -0.23200
C555        C  0.98191030  0.55339482  0.56999047    -0.03100
C556        C  0.98259015  0.57480863  0.52449247    -0.17600
H557        H  0.99116449  0.56601361  0.43018065     0.20400
H558        H  0.51337809  0.41445607  0.55849951     0.18800
H559        H  0.53133963  0.36913098  0.48392981     0.18700
H560        H  0.97275248  0.61076319  0.50378549     0.14600
loop_ 
_geom_bond_atom_site_label_1 
_geom_bond_atom_site_label_2 
_geom_bond_distance 
_geom_bond_site_symmetry_2 
_ccdc_geom_bond_type 
Fe1          O17   2.034       .  S
Fe1           O7   2.098       .  S
Fe1          O14   2.073       .  S
Fe1           O6   2.019       .  S
Fe1          O12   1.943       .  S
Fe2           O5   2.044       .  S
Fe2           O9   2.124       .  S
Fe2          O13   2.053       .  S
Fe2          O18   2.104       .  S
Fe2          O12   1.936       .  S
Fe3          O21   2.121       .  S
Fe3           O8   2.040       .  S
Fe3          O15   2.050       .  S
Fe3           O4   2.154       .  S
Fe3          O12   1.939       .  S
O4           C11   1.287       .  A
O5           C19   1.267       .  A
O6           C11   1.261       .  A
O7           C10   1.271       .  A
O8           C20   1.268       .  A
O9           C22   1.286       .  A
C10          O15   1.262       .  A
C10         C243   1.467       .  S
C11         C272   1.473       .  S
O13          C16   1.261       .  A
O14          C16   1.266       .  A
C16         C192   1.464       .  S
O17          C22   1.270       .  A
O18          C20   1.279       .  A
C19          O21   1.281       .  A
C19         C208   1.480       .  S
C20         C227   1.467       .  S
C22         C259   1.473       .  S
Fe23         O39   2.113       .  S
Fe23         O29   2.020       .  S
Fe23         O36   2.037       .  S
Fe23         O28   2.135       .  S
Fe23         O34   1.919       .  S
Fe24         O27   2.114       .  S
Fe24         O31   2.053       .  S
Fe24         O35   2.125       .  S
Fe24         O40   2.048       .  S
Fe24         O34   1.927       .  S
Fe25         O43   2.044       .  S
Fe25         O30   2.109       .  S
Fe25         O37   2.104       .  S
Fe25         O26   2.035       .  S
Fe25         O34   1.931       .  S
O26          C33   1.268       .  A
O27          C41   1.277       .  A
O28          C33   1.285       .  A
O29          C32   1.256       .  A
O30          C42   1.278       .  A
O31          C44   1.267       .  A
C32          O37   1.272       .  A
C32         C144   1.458       .  S
C33         C163   1.477   1_545  S
O35          C38   1.280       .  A
O36          C38   1.266       .  A
C38         C128   1.481       .  S
O39          C44   1.279       .  A
O40          C42   1.269       .  A
C41          O43   1.264       .  A
C41         C176   1.463       .  S
C42         C195   1.462       .  S
C44         C211   1.480   1_556  S
Fe45         O61   2.086       .  S
Fe45         O51   2.024       .  S
Fe45         O58   2.028       .  S
Fe45         O50   2.099       .  S
Fe45         O56   1.943       .  S
Fe46         O49   2.109       .  S
Fe46         O53   2.036       .  S
Fe46         O57   2.134       .  S
Fe46         O62   2.042       .  S
Fe46         O56   1.929       .  S
Fe47         O65   2.046       .  S
Fe47         O52   2.110       .  S
Fe47         O59   2.145       .  S
Fe47         O48   2.046       .  S
Fe47         O56   1.934       .  S
O48          C55   1.262       .  A
O49          C63   1.279       .  A
O50          C55   1.272       .  A
O51          C54   1.264       .  A
O52          C64   1.280       .  A
O53          C66   1.258       .  A
C54          O59   1.285       .  A
C54         C275   1.472       .  S
C55         C179   1.466       .  S
O57          C60   1.286       .  A
O58          C60   1.269       .  A
C60         C256   1.475       .  S
O61          C66   1.267       .  A
O62          C64   1.266       .  A
C63          O65   1.268       .  A
C63         C160   1.474       .  S
C64          C96   1.474       .  S
C66         C115   1.457       .  S
Fe67         O83   2.039       .  S
Fe67         O73   2.119       .  S
Fe67         O80   2.107   1_554  S
Fe67         O72   2.022       .  S
Fe67         O78   1.926       .  S
Fe68         O71   2.027       .  S
Fe68         O75   2.125       .  S
Fe68         O79   2.041       .  S
Fe68         O84   2.112       .  S
Fe68         O78   1.926       .  S
Fe69         O87   2.109       .  S
Fe69         O74   2.042       .  S
Fe69         O81   2.032       .  S
Fe69         O70   2.104       .  S
Fe69         O78   1.933       .  S
O70          C77   1.274       .  A
O71          C85   1.266       .  A
O72          C77   1.260       .  A
O73          C76   1.281       .  A
O74          C86   1.263       .  A
O75          C88   1.282       .  A
C76          O81   1.266       .  A
C76         C224   1.469   1_565  S
C77         C147   1.459       .  S
O79          C82   1.263   1_554  A
O80          C82   1.275       .  A
C82          C99   1.468       .  S
O83          C88   1.267       .  A
O84          C86   1.276       .  A
C85          O87   1.279       .  A
C85         C112   1.459       .  S
C86         C240   1.464       .  S
C88         C131   1.480       .  S
C89          C94   1.380       .  A
C89          C90   1.407       .  A
C89          O95   1.318       .  A
C90          C91   1.404       .  A
C90         H101   1.082       .  S
C91         C100   1.369       .  A
C91          C92   1.380       .  A
C92          C93   1.404       .  A
C92          O98   1.316       .  A
C93          C94   1.402       .  A
C93         H102   1.082       .  S
C94          C97   1.366       .  A
O95          C96   1.333       .  A
C96          C97   1.391       .  A
C97         H103   1.082       .  S
O98          C99   1.331       .  A
C99         C100   1.391       .  A
C100        H104   1.082       .  S
C105        C110   1.381       .  A
C105        C106   1.400       .  A
C105        O111   1.310       .  A
C106        C107   1.396       .  A
C106        H117   1.082       .  S
C107        C116   1.362       .  A
C107        C108   1.381       .  A
C108        C109   1.404       .  A
C108        O114   1.314       .  A
C109        C110   1.401       .  A
C109        H118   1.082       .  S
C110        C113   1.366       .  A
O111        C112   1.328       .  A
C112        C113   1.391       .  A
C113        H119   1.082       .  S
O114        C115   1.330       .  A
C115        C116   1.386       .  A
C116        H120   1.082       .  S
C121        C126   1.380   1_545  A
C121        C122   1.406       .  A
C121        O127   1.326       .  A
C122        C123   1.408   1_556  A
C122        H133   1.082       .  S
C123        C132   1.362   1_545  A
C123        C124   1.380   1_545  A
C124        C125   1.403   1_554  A
C124        O130   1.324       .  A
C125        C126   1.405       .  A
C125        H134   1.082       .  S
C126        C129   1.358       .  A
O127        C128   1.333       .  A
C128        C129   1.394   1_545  A
C129        H135   1.083       .  S
O130        C131   1.331       .  A
C131        C132   1.395       .  A
C132        H136   1.083   1_565  S
C137        C142   1.381   1_556  A
C137        C418   1.397   1_445  A
C137        O143   1.317       .  A
C138        C139   1.399       .  A
C138        C417   1.397   1_565  A
C138        H149   1.082       .  S
C139        C148   1.350       .  A
C139        C420   1.381   1_556  A
C140        C141   1.399   1_565  A
C140        C419   1.381   1_454  A
C140        O426   1.318       .  A
C141        C142   1.401       .  A
C141        H150   1.082       .  S
C142        C145   1.352   1_554  A
O143        C144   1.328       .  A
C144        C145   1.393       .  A
C145        H151   1.083   1_556  S
O146        C147   1.329       .  A
O146        C420   1.318       .  A
C147        C148   1.392   1_554  A
C148        H152   1.083       .  S
C153        C158   1.379       .  A
C153        C154   1.408       .  A
C153        O159   1.319       .  A
C154        C435   1.405       .  A
C154        H165   1.082       .  S
C155        C164   1.371       .  A
C155        C156   1.379       .  A
C155        C434   1.405       .  A
C156        C157   1.406   1_455  A
C156        O162   1.317       .  A
C157        C438   1.403       .  A
C157        H166   1.082       .  S
C158        C161   1.368       .  A
C158        C437   1.403       .  A
O159        C160   1.333       .  A
C160        C161   1.391       .  A
C161        H167   1.082       .  S
O162        C163   1.333       .  A
C163        C164   1.393       .  A
C164        H168   1.082       .  S
C169        C174   1.380       .  A
C169        C450   1.403   1_455  A
C169        O175   1.319       .  A
C170        C171   1.403       .  A
C170        C449   1.403       .  A
C170        H181   1.082       .  S
C171        C180   1.362       .  A
C171        C172   1.380       .  A
C172        C453   1.403       .  A
C172        O178   1.317       .  A
C173        C174   1.402   1_655  A
C173        C452   1.403       .  A
C173        H182   1.082   1_655  S
C174        C177   1.361       .  A
O175        C176   1.331       .  A
C176        C177   1.390       .  A
C177        H183   1.083       .  S
O178        C179   1.331       .  A
C179        C180   1.392       .  A
C180        H184   1.083       .  S
C185        C190   1.380       .  A
C185        C186   1.405       .  A
C185        O191   1.321       .  A
C186        C187   1.404       .  A
C186        H197   1.082       .  S
C187        C196   1.364       .  A
C187        C188   1.381       .  A
C188        C189   1.401       .  A
C188        O194   1.316       .  A
C189        C190   1.400       .  A
C189        H198   1.083       .  S
C190        C193   1.358       .  A
O191        C192   1.331       .  A
C192        C193   1.389       .  A
C193        H199   1.083       .  S
O194        C195   1.329       .  A
C195        C196   1.391       .  A
C196        H200   1.082       .  S
C201        C206   1.379       .  A
C201        C202   1.407       .  A
C201        O207   1.317       .  A
C202        C203   1.404       .  A
C202        H213   1.082       .  S
C203        C212   1.370       .  A
C203        C204   1.379       .  A
C204        C205   1.410       .  A
C204        O210   1.320       .  A
C205        C206   1.407       .  A
C205        H214   1.082       .  S
C206        C209   1.374       .  A
O207        C208   1.333       .  A
C208        C209   1.394       .  A
C209        H215   1.082       .  S
O210        C211   1.335       .  A
C211        C212   1.392       .  A
C212        H216   1.082       .  S
C217        C222   1.380       .  A
C217        C498   1.405       .  A
C217        O223   1.315       .  A
C218        C219   1.401       .  A
C218        C497   1.405   1_455  A
C218        H229   1.082       .  S
C219        C228   1.367       .  A
C219        C500   1.380       .  A
C220        C221   1.405       .  A
C220        C499   1.380       .  A
C220        O506   1.315       .  A
C221        C222   1.402       .  A
C221        H230   1.082       .  S
C222        C225   1.367       .  A
O223        C224   1.332       .  A
C224        C225   1.391       .  A
C225        H231   1.082       .  S
O226        C227   1.332       .  A
O226        C500   1.316       .  A
C227        C228   1.390       .  A
C228        H232   1.082       .  S
C233        C238   1.380       .  A
C233        C514   1.404       .  A
C233        O239   1.318       .  A
C234        C235   1.403       .  A
C234        C513   1.404   1_455  A
C234        H245   1.082       .  S
C235        C244   1.363       .  A
C235        C236   1.380       .  A
C236        C237   1.404   1_455  A
C236        O242   1.318       .  A
C237        C518   1.403       .  A
C237        H246   1.082       .  S
C238        C241   1.363       .  A
C238        C517   1.403       .  A
O239        C240   1.331       .  A
C240        C241   1.390       .  A
C241        H247   1.083       .  S
O242        C243   1.331       .  A
C243        C244   1.392       .  A
C244        H248   1.082       .  S
C249        C254   1.379       .  A
C249        C250   1.404       .  A
C249        O255   1.315       .  A
C250        C251   1.400       .  A
C250        H261   1.082       .  S
C251        C260   1.365       .  A
C251        C252   1.379       .  A
C252        C253   1.408       .  A
C252        O258   1.318       .  A
C253        C254   1.405       .  A
C253        H262   1.082       .  S
C254        C257   1.370       .  A
O255        C256   1.332       .  A
C256        C257   1.393       .  A
C257        H263   1.082       .  S
O258        C259   1.333       .  A
C259        C260   1.390       .  A
C260        H264   1.082       .  S
C265        C270   1.379       .  A
C265        C546   1.404   1_455  A
C265        O271   1.323       .  A
C266        C267   1.405       .  A
C266        C545   1.404       .  A
C266        H277   1.082       .  S
C267        C276   1.359       .  A
C267        C548   1.379       .  A
C268        C269   1.406   1_655  A
C268        C547   1.379       .  A
C268        O554   1.324       .  A
C269        C270   1.407       .  A
C269        H278   1.082       .  S
C270        C273   1.361       .  A
O271        C272   1.333       .  A
C272        C273   1.397       .  A
C273        H279   1.083       .  S
O274        C275   1.333       .  A
O274        C548   1.324       .  A
C275        C276   1.394       .  A
C276        H280   1.083       .  S
Fe281       O297   2.035       .  S
Fe281       O287   2.098       .  S
Fe281       O294   2.072       .  S
Fe281       O286   2.020       .  S
Fe281       O292   1.943       .  S
Fe282       O285   2.044       .  S
Fe282       O289   2.123       .  S
Fe282       O293   2.052       .  S
Fe282       O298   2.103       .  S
Fe282       O292   1.937       .  S
Fe283       O301   2.120       .  S
Fe283       O288   2.039       .  S
Fe283       O295   2.049       .  S
Fe283       O284   2.154       .  S
Fe283       O292   1.939       .  S
O284        C291   1.287       .  A
O285        C299   1.267       .  A
O286        C291   1.261       .  A
O287        C290   1.270       .  A
O288        C300   1.268       .  A
O289        C302   1.286       .  A
C290        O295   1.262       .  A
C290        C523   1.467       .  S
C291        C552   1.473       .  S
O293        C296   1.261       .  A
O294        C296   1.266       .  A
C296        C472   1.464       .  S
O297        C302   1.270       .  A
O298        C300   1.279       .  A
C299        O301   1.281       .  A
C299        C488   1.480       .  S
C300        C507   1.466       .  S
C302        C539   1.473       .  S
Fe303       O319   2.113       .  S
Fe303       O309   2.020       .  S
Fe303       O316   2.037       .  S
Fe303       O308   2.136       .  S
Fe303       O314   1.920       .  S
Fe304       O307   2.114       .  S
Fe304       O311   2.053       .  S
Fe304       O315   2.125       .  S
Fe304       O320   2.048       .  S
Fe304       O314   1.927       .  S
Fe305       O323   2.044       .  S
Fe305       O310   2.109       .  S
Fe305       O317   2.104       .  S
Fe305       O306   2.035       .  S
Fe305       O314   1.931       .  S
O306        C313   1.268       .  A
O307        C321   1.277       .  A
O308        C313   1.285       .  A
O309        C312   1.256       .  A
O310        C322   1.278       .  A
O311        C324   1.267       .  A
C312        O317   1.272       .  A
C312        C424   1.458       .  S
C313        C443   1.478   1_545  S
O315        C318   1.280       .  A
O316        C318   1.266       .  A
C318        C408   1.481       .  S
O319        C324   1.279       .  A
O320        C322   1.269       .  A
C321        O323   1.264       .  A
C321        C456   1.463       .  S
C322        C475   1.462       .  S
C324        C491   1.479   1_556  S
Fe325       O341   2.086       .  S
Fe325       O331   2.024       .  S
Fe325       O338   2.029       .  S
Fe325       O330   2.099       .  S
Fe325       O336   1.943       .  S
Fe326       O329   2.108       .  S
Fe326       O333   2.038       .  S
Fe326       O337   2.133       .  S
Fe326       O342   2.044       .  S
Fe326       O336   1.929       .  S
Fe327       O345   2.046       .  S
Fe327       O332   2.110       .  S
Fe327       O339   2.144       .  S
Fe327       O328   2.046       .  S
Fe327       O336   1.934       .  S
O328        C335   1.262       .  A
O329        C343   1.279       .  A
O330        C335   1.272       .  A
O331        C334   1.264       .  A
O332        C344   1.280       .  A
O333        C346   1.258       .  A
C334        O339   1.285       .  A
C334        C555   1.471       .  S
C335        C459   1.466       .  S
O337        C340   1.286       .  A
O338        C340   1.269       .  A
C340        C536   1.475       .  S
O341        C346   1.267       .  A
O342        C344   1.267       .  A
C343        O345   1.268       .  A
C343        C440   1.473       .  S
C344        C376   1.475       .  S
C346        C395   1.458       .  S
Fe347       O363   2.039       .  S
Fe347       O353   2.121       .  S
Fe347       O360   2.107   1_554  S
Fe347       O352   2.022       .  S
Fe347       O358   1.927       .  S
Fe348       O351   2.028       .  S
Fe348       O355   2.125       .  S
Fe348       O359   2.042       .  S
Fe348       O364   2.113       .  S
Fe348       O358   1.926       .  S
Fe349       O367   2.109       .  S
Fe349       O354   2.042       .  S
Fe349       O361   2.033       .  S
Fe349       O350   2.104       .  S
Fe349       O358   1.934       .  S
O350        C357   1.273       .  A
O351        C365   1.266       .  A
O352        C357   1.260       .  A
O353        C356   1.281       .  A
O354        C366   1.263       .  A
O355        C368   1.282       .  A
C356        O361   1.266       .  A
C356        C504   1.470   1_565  S
C357        C427   1.459       .  S
O359        C362   1.263   1_554  A
O360        C362   1.275       .  A
C362        C379   1.468       .  S
O363        C368   1.267       .  A
O364        C366   1.277       .  A
C365        O367   1.279       .  A
C365        C392   1.460       .  S
C366        C520   1.464       .  S
C368        C411   1.480       .  S
C369        C374   1.380       .  A
C369        C370   1.408       .  A
C369        O375   1.318       .  A
C370        C371   1.404       .  A
C370        H381   1.082       .  S
C371        C380   1.370       .  A
C371        C372   1.380       .  A
C372        C373   1.404       .  A
C372        O378   1.316       .  A
C373        C374   1.402       .  A
C373        H382   1.082       .  S
C374        C377   1.366       .  A
O375        C376   1.334       .  A
C376        C377   1.391       .  A
C377        H383   1.082       .  S
O378        C379   1.331       .  A
C379        C380   1.391       .  A
C380        H384   1.082       .  S
C385        C390   1.381       .  A
C385        C386   1.400       .  A
C385        O391   1.310       .  A
C386        C387   1.397       .  A
C386        H397   1.082       .  S
C387        C396   1.362       .  A
C387        C388   1.381       .  A
C388        C389   1.405       .  A
C388        O394   1.314       .  A
C389        C390   1.402       .  A
C389        H398   1.082       .  S
C390        C393   1.367       .  A
O391        C392   1.328       .  A
C392        C393   1.391       .  A
C393        H399   1.082       .  S
O394        C395   1.331       .  A
C395        C396   1.386       .  A
C396        H400   1.082       .  S
C401        C406   1.380   1_545  A
C401        C402   1.406       .  A
C401        O407   1.326       .  A
C402        C403   1.408   1_556  A
C402        H413   1.082       .  S
C403        C412   1.362   1_545  A
C403        C404   1.380   1_545  A
C404        C405   1.403   1_554  A
C404        O410   1.324       .  A
C405        C406   1.405       .  A
C405        H414   1.082       .  S
C406        C409   1.358       .  A
O407        C408   1.333       .  A
C408        C409   1.394   1_545  A
C409        H415   1.083       .  S
O410        C411   1.331       .  A
C411        C412   1.396       .  A
C412        H416   1.083   1_565  S
C417        C422   1.381   1_556  A
C417        O423   1.317       .  A
C418        C419   1.399       .  A
C418        H429   1.082       .  S
C419        C428   1.350       .  A
C420        C421   1.399   1_565  A
C421        C422   1.401       .  A
C421        H430   1.082       .  S
C422        C425   1.352   1_554  A
O423        C424   1.328       .  A
C424        C425   1.393       .  A
C425        H431   1.083   1_556  S
O426        C427   1.329   1_455  A
C427        C428   1.392   1_554  A
C428        H432   1.083       .  S
C433        C438   1.379   1_455  A
C433        C434   1.407       .  A
C433        O439   1.319   1_455  A
C434        H445   1.082       .  S
C435        C444   1.371       .  A
C435        C436   1.379       .  A
C436        C437   1.406       .  A
C436        O442   1.317       .  A
C437        H446   1.082       .  S
C438        C441   1.368       .  A
O439        C440   1.332       .  A
C440        C441   1.391       .  A
C441        H447   1.082       .  S
O442        C443   1.333       .  A
C443        C444   1.393       .  A
C444        H448   1.082       .  S
C449        C454   1.380       .  A
C449        O455   1.319       .  A
C450        C451   1.403       .  A
C450        H461   1.082       .  S
C451        C460   1.362       .  A
C451        C452   1.380       .  A
C452        O458   1.317       .  A
C453        C454   1.402       .  A
C453        H462   1.082       .  S
C454        C457   1.361       .  A
O455        C456   1.331       .  A
C456        C457   1.390       .  A
C457        H463   1.083       .  S
O458        C459   1.331       .  A
C459        C460   1.392       .  A
C460        H464   1.083       .  S
C465        C470   1.380       .  A
C465        C466   1.404       .  A
C465        O471   1.321       .  A
C466        C467   1.404       .  A
C466        H477   1.082       .  S
C467        C476   1.363       .  A
C467        C468   1.381       .  A
C468        C469   1.401       .  A
C468        O474   1.316       .  A
C469        C470   1.400       .  A
C469        H478   1.083       .  S
C470        C473   1.358       .  A
O471        C472   1.331       .  A
C472        C473   1.389       .  A
C473        H479   1.083       .  S
O474        C475   1.329       .  A
C475        C476   1.391       .  A
C476        H480   1.082       .  S
C481        C486   1.379       .  A
C481        C482   1.407       .  A
C481        O487   1.317       .  A
C482        C483   1.404       .  A
C482        H493   1.082       .  S
C483        C492   1.369       .  A
C483        C484   1.379       .  A
C484        C485   1.410       .  A
C484        O490   1.320       .  A
C485        C486   1.407       .  A
C485        H494   1.082       .  S
C486        C489   1.374       .  A
O487        C488   1.333       .  A
C488        C489   1.394       .  A
C489        H495   1.082       .  S
O490        C491   1.335       .  A
C491        C492   1.392       .  A
C492        H496   1.082       .  S
C497        C502   1.380       .  A
C497        O503   1.315       .  A
C498        C499   1.401       .  A
C498        H509   1.082       .  S
C499        C508   1.366       .  A
C500        C501   1.406   1_455  A
C501        C502   1.403       .  A
C501        H510   1.082       .  S
C502        C505   1.368       .  A
O503        C504   1.332       .  A
C504        C505   1.392       .  A
C505        H511   1.082       .  S
O506        C507   1.331       .  A
C507        C508   1.389       .  A
C508        H512   1.082       .  S
C513        C518   1.380       .  A
C513        O519   1.318       .  A
C514        C515   1.403       .  A
C514        H525   1.082       .  S
C515        C524   1.363       .  A
C515        C516   1.380       .  A
C516        C517   1.404       .  A
C516        O522   1.318       .  A
C517        H526   1.082       .  S
C518        C521   1.363       .  A
O519        C520   1.331       .  A
C520        C521   1.390       .  A
C521        H527   1.083       .  S
O522        C523   1.331       .  A
C523        C524   1.392       .  A
C524        H528   1.082       .  S
C529        C534   1.380       .  A
C529        C530   1.404       .  A
C529        O535   1.315       .  A
C530        C531   1.401       .  A
C530        H541   1.082       .  S
C531        C540   1.365       .  A
C531        C532   1.379       .  A
C532        C533   1.407       .  A
C532        O538   1.318       .  A
C533        C534   1.404       .  A
C533        H542   1.082       .  S
C534        C537   1.370       .  A
O535        C536   1.332       .  A
C536        C537   1.393       .  A
C537        H543   1.082       .  S
O538        C539   1.333       .  A
C539        C540   1.390       .  A
C540        H544   1.082       .  S
C545        C550   1.379       .  A
C545        O551   1.323       .  A
C546        C547   1.406       .  A
C546        H557   1.082       .  S
C547        C556   1.359       .  A
C548        C549   1.406       .  A
C549        C550   1.407       .  A
C549        H558   1.082       .  S
C550        C553   1.361       .  A
O551        C552   1.333       .  A
C552        C553   1.397       .  A
C553        H559   1.083       .  S
O554        C555   1.333       .  A
C555        C556   1.394       .  A
C556        H560   1.083       .  S
