geometry optimzed in LAMMPS
_audit_creation_date              2020-12-01 
_audit_creation_method            'lammps2cif' 
_symmetry_space_group_name_H-M    'P1' 
_symmetry_Int_Tables_number       1 
_symmetry_cell_setting            triclinic 
loop_ 
_symmetry_equiv_pos_as_xyz 
  x,y,z 
_cell_length_a                    39.63724074 
_cell_length_b                    40.12584215994617 
_cell_length_c                    35.52393238802408 
_cell_angle_alpha                 89.95818750320639 
_cell_angle_beta                  89.9311004838676 
_cell_angle_gamma                 90.31749035961272 
loop_ 
_atom_site_label 
_atom_site_type_symbol 
_atom_site_fract_x 
_atom_site_fract_y 
_atom_site_fract_z 
_atom_site_charge 
O1          O  0.93203171  0.06414383  0.11924330    -0.86800
O2          O  0.88006725  0.06338999  0.17042412    -0.83900
C3          C  0.87859592  0.09430008  0.17830831     0.96600
O4          O  0.86928327  0.11480835  0.15366559    -0.83900
O5          O  0.85241411  0.14220171  0.08391115    -0.86600
C6          C  0.87923255  0.14929727  0.06573506     1.01100
O7          O  0.90110076  0.12728829  0.06106861    -0.79300
O8          O  0.93159550  0.06725580  0.05807841    -0.79500
C9          C  0.94606612  0.07343648  0.08903810     1.01100
O10         O  0.89756923  0.01267770  0.07357050    -0.86800
O11         O  0.84215205  0.01856841  0.12139654    -0.83900
C12         C  0.81616864  0.03233150  0.13512020     0.96600
O13         O  0.81748910  0.06309715  0.14390502    -0.83900
O14         O  0.80750971  0.08636293  0.07457781    -0.86500
C15         C  0.81146552  0.09629048  0.04151209     1.01100
O16         O  0.84076257  0.10069603  0.02810321    -0.79400
O17         O  0.86909008  0.03941369  0.03039836    -0.79500
C18         C  0.88273121  0.01318722  0.04175816     1.01100
Cr19       Cr  0.88714821  0.04148409  0.11953891     1.93700
Cr20       Cr  0.83904614  0.10015028  0.11310471     1.93200
Cr21       Cr  0.88480897  0.08290571  0.04736488     1.39100
O22         O  0.87026521  0.07483979  0.09336127    -1.24600
O23         O  0.62337751  0.17876193  0.84164785    -0.86800
O24         O  0.57186562  0.17614402  0.89374765    -0.83900
C25         C  0.55841837  0.16572865  0.92384489     0.96600
O26         O  0.57308818  0.17155639  0.95477274    -0.83900
O27         O  0.60428590  0.11206303  0.94961554    -0.86600
C28         C  0.62609201  0.09017341  0.94391998     1.01100
O29         O  0.65267259  0.09784667  0.92565795    -0.79300
O30         O  0.63374599  0.12707324  0.85748679    -0.79500
C31         C  0.62506784  0.14802077  0.83304794     1.01100
O32         O  0.66137309  0.22255127  0.89149021    -0.86800
O33         O  0.60634663  0.22709163  0.94043261    -0.83900
C34         C  0.62124570  0.22611458  0.97223603     0.96600
O35         O  0.63537365  0.19982489  0.98269924    -0.83900
O36         O  0.66479065  0.13899409  0.98221923    -0.86500
C37         C  0.69391568  0.14377259  0.96844036     1.01100
O38         O  0.69752642  0.15359218  0.93527905    -0.79400
O39         O  0.68565092  0.17852258  0.86713539    -0.79500
C40         C  0.68712214  0.20903749  0.87688261     1.01100
Cr41       Cr  0.61654934  0.19934724  0.89343042     1.93700
Cr42       Cr  0.62020118  0.15640026  0.96440057     1.93200
Cr43       Cr  0.66500511  0.14073066  0.89737475     1.39100
O44         O  0.63412913  0.16562777  0.91850114    -1.24600
O45         O  0.87841772  0.31449929  0.83768962    -0.86800
O46         O  0.93068044  0.31506538  0.88839652    -0.83900
C47         C  0.94484573  0.32406655  0.91859789     0.96600
O48         O  0.93033611  0.31773765  0.94955574    -0.83900
O49         O  0.89964685  0.37753777  0.94691788    -0.86600
C50         C  0.87787426  0.39964814  0.94245569     1.01100
O51         O  0.85088851  0.39274900  0.92466229    -0.79300
O52         O  0.86770167  0.36575478  0.85493486    -0.79500
C53         C  0.87695116  0.34546166  0.83007165     1.01100
O54         O  0.84069100  0.26951961  0.88686366    -0.86800
O55         O  0.89635551  0.26311572  0.93410471    -0.83900
C56         C  0.88181475  0.26335861  0.96615866     0.96600
O57         O  0.86801758  0.28945646  0.97768523    -0.83900
O58         O  0.83953678  0.35059904  0.98041455    -0.86500
C59         C  0.81007377  0.34645423  0.96743903     1.01100
O60         O  0.80566097  0.33743977  0.93410109    -0.79400
O61         O  0.81585256  0.31411231  0.86471345    -0.79500
C62         C  0.81452886  0.28342442  0.87380095     1.01100
Cr63       Cr  0.88569840  0.29231804  0.88836922     1.93700
Cr64       Cr  0.88350630  0.33313545  0.96069248     1.93200
Cr65       Cr  0.83742578  0.35097703  0.89546362     1.39100
O66         O  0.86871217  0.32541449  0.91486646    -1.24600
O67         O  0.57253423  0.42587768  0.12137597    -0.86800
O68         O  0.62417507  0.42903436  0.17408174    -0.83900
C69         C  0.62548441  0.39849914  0.18359043     0.96600
O70         O  0.63369100  0.37695231  0.15957056    -0.83900
O71         O  0.65152468  0.34655547  0.09113907    -0.86600
C72         C  0.62510484  0.33974784  0.07222298     1.01100
O73         O  0.60399273  0.36218140  0.06623097    -0.79300
O74         O  0.57432257  0.42213187  0.06037962    -0.79500
C75         C  0.55927611  0.41584945  0.09099063     1.01100
O76         O  0.60797151  0.47644022  0.07448951    -0.86800
O77         O  0.66275388  0.47148215  0.12355960    -0.83900
C78         C  0.68860046  0.45773618  0.13770092     0.96600
O79         O  0.68697017  0.42726857  0.14784109    -0.83900
O80         O  0.69829113  0.40034494  0.08047354    -0.86500
C81         C  0.69431391  0.39089251  0.04721565     1.01100
O82         O  0.66508211  0.38724266  0.03349890    -0.79400
O83         O  0.63738739  0.44909409  0.03261711    -0.79500
C84         C  0.62313970  0.47543541  0.04279440     1.01100
Cr85       Cr  0.61761984  0.44886065  0.12182509     1.93700
Cr86       Cr  0.66517560  0.38932789  0.11877352     1.93200
Cr87       Cr  0.62108958  0.40592199  0.05114218     1.39100
O88         O  0.63498213  0.41483541  0.09714141    -1.24600
O89         O  0.93450168  0.16888563  0.39203250    -0.86800
O90         O  0.88339908  0.17262973  0.33982440    -0.83900
C91         C  0.88003848  0.14204009  0.33094213     0.96600
O92         O  0.86920455  0.12143413  0.35479093    -0.83900
O93         O  0.85081706  0.09218184  0.42283089    -0.86600
C94         C  0.87752410  0.08359850  0.44018813     1.01100
O95         O  0.90017760  0.10493211  0.44588876    -0.79300
O96         O  0.93295706  0.16414766  0.45297661    -0.79500
C97         C  0.94781361  0.15862554  0.42214174     1.01100
O98         O  0.90088735  0.21993546  0.43921713    -0.86800
O99         O  0.84677690  0.21730016  0.38992074    -0.83900
C100        C  0.82021200  0.20513519  0.37548029     0.96600
O101        O  0.81966209  0.17449420  0.36608319    -0.83900
O102        O  0.80835318  0.14939353  0.43452909    -0.86500
C103        C  0.81192206  0.13786425  0.46693775     1.01100
O104        O  0.84094529  0.13182720  0.47988590    -0.79400
O105        O  0.87116365  0.19228407  0.48103299    -0.79500
C106        C  0.88524353  0.21875482  0.47061663     1.01100
Cr107      Cr  0.89051721  0.19284189  0.39177262     1.93700
Cr108      Cr  0.83942188  0.13579702  0.39554062     1.93200
Cr109      Cr  0.88556222  0.14916255  0.46200991     1.39100
O110        O  0.87172696  0.15934790  0.41637998    -1.24600
O111        O  0.62710119  0.06742853  0.67427365    -0.86800
O112        O  0.57424447  0.06950276  0.62448999    -0.83900
C113        C  0.56000241  0.07857884  0.59438220     0.96600
O114        O  0.57374019  0.07147118  0.56340916    -0.83900
O115        O  0.60776877  0.13065654  0.56646349    -0.86600
C116        C  0.63137313  0.15136976  0.56955153     1.01100
O117        O  0.65880124  0.14266873  0.58523026    -0.79300
O118        O  0.64220457  0.11767831  0.65632343    -0.79500
C119        C  0.63089296  0.09833077  0.68130396     1.01100
O120        O  0.66175252  0.01970248  0.62554891    -0.86800
O121        O  0.60614075  0.01551816  0.57927613    -0.83900
C122        C  0.62019427  0.01522379  0.54694284     0.96600
O123        O  0.63304695  0.04134852  0.53374424    -0.83900
O124        O  0.66518430  0.10059770  0.53059615    -0.86500
C125        C  0.69442830  0.09360147  0.54233644     1.01100
O126        O  0.69894560  0.08389550  0.57537428    -0.79400
O127        O  0.68997035  0.06304872  0.64596487    -0.79500
C128        C  0.68914343  0.03224340  0.63747164     1.01100
Cr129      Cr  0.61811093  0.04478216  0.62429027     1.93700
Cr130      Cr  0.62078197  0.08540388  0.55155921     1.93200
Cr131      Cr  0.67000391  0.10046974  0.61492060     1.39100
O132        O  0.63638234  0.07674982  0.59696570    -1.24600
O133        O  0.57694746  0.31078355  0.40611747    -0.86800
O134        O  0.61992034  0.32178090  0.34580028    -0.83900
C135        C  0.63238089  0.34957465  0.33616669     0.96600
O136        O  0.65230840  0.36512657  0.35754501    -0.83900
O137        O  0.64781126  0.39242554  0.42761561    -0.86600
C138        C  0.64376375  0.39505729  0.46266267     1.01100
O139        O  0.64793121  0.36976492  0.48239142    -0.79300
O140        O  0.58724088  0.34751860  0.45218836    -0.79500
C141        C  0.56796390  0.33563514  0.42702927     1.01100
O142        O  0.62969141  0.25769148  0.43120326    -0.86800
O143        O  0.66965703  0.27510936  0.37564093    -0.83900
C144        C  0.69899589  0.28810545  0.37598042     0.96600
O145        O  0.70304409  0.31867797  0.38367114    -0.83900
O146        O  0.69953403  0.34419912  0.45272845    -0.86500
C147        C  0.69829265  0.32069717  0.47689029     1.01100
O148        O  0.67107114  0.30526789  0.48476558    -0.79400
O149        O  0.60234437  0.28438499  0.47263076    -0.79500
C150        C  0.61606384  0.25813763  0.46292164     1.01100
Cr151      Cr  0.62457066  0.29349282  0.39186721     1.93700
Cr152      Cr  0.67316565  0.35316304  0.40635498     1.93200
Cr153      Cr  0.62840150  0.32629105  0.46897995     1.39100
O154        O  0.64203065  0.32444169  0.42123922    -1.24600
O155        O  0.87625399  0.42260678  0.66782243    -0.86800
O156        O  0.92817697  0.41891112  0.61643421    -0.83900
C157        C  0.94247870  0.40915888  0.58663759     0.96600
O158        O  0.92797546  0.41464156  0.55551176    -0.83900
O159        O  0.89848780  0.35459308  0.56340387    -0.86600
C160        C  0.87740531  0.33193420  0.56970687     1.01100
O161        O  0.85025991  0.33876593  0.58723474    -0.79300
O162        O  0.86479255  0.37066350  0.65418069    -0.79500
C163        C  0.87472571  0.39213354  0.67738682     1.01100
O164        O  0.83865222  0.46462083  0.61660093    -0.86800
O165        O  0.89356745  0.46825516  0.56777884    -0.83900
C166        C  0.87893304  0.46673138  0.53583099     0.96600
O167        O  0.86513914  0.43995847  0.52537975    -0.83900
O168        O  0.83817282  0.37553261  0.52751116    -0.86500
C169        C  0.80884219  0.37623813  0.54164952     1.01100
O170        O  0.80382255  0.39170331  0.57166337    -0.79400
O171        O  0.81220212  0.42065121  0.63934606    -0.79500
C172        C  0.81224275  0.45151731  0.63058307     1.01100
Cr173      Cr  0.88332974  0.44164800  0.61549005     1.93700
Cr174      Cr  0.88129496  0.39730260  0.54569671     1.93200
Cr175      Cr  0.83503749  0.38215347  0.61220900     1.39100
O176        O  0.86611407  0.40724903  0.59104869    -1.24600
O177        O  0.07341657  0.17413849  0.12045250    -0.86800
O178        O  0.12520925  0.17477078  0.17186844    -0.83900
C179        C  0.12623318  0.14383344  0.17961307     0.96600
O180        O  0.13512536  0.12334208  0.15479040    -0.83900
O181        O  0.15170138  0.09567224  0.08528703    -0.86600
C182        C  0.12492057  0.08907260  0.06689212     1.01100
O183        O  0.10363517  0.11152476  0.06165207    -0.79300
O184        O  0.07425786  0.17199879  0.05931186    -0.79500
C185        C  0.05970838  0.16502796  0.09004978     1.01100
O186        O  0.10838395  0.22575901  0.07500004    -0.86800
O187        O  0.16342735  0.21915644  0.12281824    -0.83900
C188        C  0.18939179  0.20504110  0.13602865     0.96600
O189        O  0.18794375  0.17425749  0.14481512    -0.83900
O190        O  0.19798992  0.15031718  0.07587315    -0.86500
C191        C  0.19382239  0.14102527  0.04261530     1.01100
O192        O  0.16447473  0.13737853  0.02920358    -0.79400
O193        O  0.13731940  0.19926061  0.03199665    -0.79500
C194        C  0.12366969  0.22548157  0.04339999     1.01100
Cr195      Cr  0.11837912  0.19666386  0.12090483     1.93700
Cr196      Cr  0.16584643  0.13741822  0.11433004     1.93200
Cr197      Cr  0.12075964  0.15577425  0.04846332     1.39100
O198        O  0.13517314  0.16330568  0.09455838    -1.24600
O199        O  0.38127877  0.06284950  0.83857793    -0.86800
O200        O  0.43240967  0.06355107  0.89075091    -0.83900
C201        C  0.44580610  0.07266985  0.92132505     0.96600
O202        O  0.43095673  0.06571808  0.95189433    -0.83900
O203        O  0.39997723  0.12535814  0.94881935    -0.86600
C204        C  0.37807988  0.14732285  0.94422232     1.01100
O205        O  0.35143635  0.14032671  0.92581547    -0.79300
O206        O  0.36990568  0.11384568  0.85630574    -0.79500
C207        C  0.37937217  0.09385014  0.83123100     1.01100
O208        O  0.34309158  0.01725427  0.88648260    -0.86800
O209        O  0.39760682  0.01105217  0.93525077    -0.83900
C210        C  0.38228359  0.01110246  0.96686444     0.96600
O211        O  0.36819510  0.03708280  0.97820686    -0.83900
O212        O  0.33941148  0.09789511  0.98055795    -0.86500
C213        C  0.31022892  0.09360588  0.96687537     1.01100
O214        O  0.30650430  0.08438308  0.93352022    -0.79400
O215        O  0.31843119  0.06185254  0.86409252    -0.79500
C216        C  0.31717010  0.03108612  0.87278245     1.01100
Cr217      Cr  0.38777286  0.04039295  0.88936914     1.93700
Cr218      Cr  0.38385117  0.08081032  0.96194401     1.93200
Cr219      Cr  0.33892808  0.09860028  0.89583759     1.39100
O220        O  0.37001542  0.07318190  0.91573051    -1.24600
O221        O  0.12733884  0.42420099  0.83863153    -0.86800
O222        O  0.07481798  0.42305984  0.88884529    -0.83900
C223        C  0.06057486  0.41361461  0.91886394     0.96600
O224        O  0.07448331  0.42040076  0.94997320    -0.83900
O225        O  0.10622088  0.36102020  0.94801012    -0.86600
C226        C  0.12855190  0.33936055  0.94408798     1.01100
O227        O  0.15560711  0.34680399  0.92662109    -0.79300
O228        O  0.13865102  0.37314336  0.85641427    -0.79500
C229        C  0.12915342  0.39319193  0.83135437     1.01100
O230        O  0.16415037  0.47000238  0.88749608    -0.86800
O231        O  0.10794004  0.47581090  0.93471379    -0.83900
C232        C  0.12206241  0.47559479  0.96698300     0.96600
O233        O  0.13595103  0.44962112  0.97865534    -0.83900
O234        O  0.16546276  0.38920747  0.98185615    -0.86500
C235        C  0.19492408  0.39403911  0.96910026     1.01100
O236        O  0.19943169  0.40335981  0.93584895    -0.79400
O237        O  0.18937296  0.42546540  0.86574847    -0.79500
C238        C  0.19033119  0.45627338  0.87414976     1.01100
Cr239      Cr  0.11938502  0.44656297  0.88911113     1.93700
Cr240      Cr  0.12138852  0.40579107  0.96167835     1.93200
Cr241      Cr  0.16838014  0.38867379  0.89702856     1.39100
O242        O  0.13653169  0.41376364  0.91596072    -1.24600
O243        O  0.43193338  0.31354553  0.12032564    -0.86800
O244        O  0.37986305  0.31222916  0.17139255    -0.83900
C245        C  0.37789771  0.34317978  0.17887321     0.96600
O246        O  0.36838713  0.36331019  0.15396285    -0.83900
O247        O  0.35127692  0.39019517  0.08436842    -0.86600
C248        C  0.37826797  0.39748751  0.06663949     1.01100
O249        O  0.40036964  0.37567160  0.06234621    -0.79300
O250        O  0.43174589  0.31627765  0.05917618    -0.79500
C251        C  0.44599879  0.32293870  0.09016119     1.01100
O252        O  0.39796074  0.26125078  0.07482619    -0.86800
O253        O  0.34261465  0.26675457  0.12244677    -0.83900
C254        C  0.31636436  0.28027848  0.13581671     0.96600
O255        O  0.31732480  0.31101056  0.14469744    -0.83900
O256        O  0.30697482  0.33378470  0.07514462    -0.86500
C257        C  0.31108725  0.34407132  0.04224607     1.01100
O258        O  0.34044834  0.34852970  0.02901171    -0.79400
O259        O  0.36940685  0.28753931  0.03134256    -0.79500
C260        C  0.38288712  0.26137164  0.04312961     1.01100
Cr261      Cr  0.38730780  0.29017660  0.12064159     1.93700
Cr262      Cr  0.33834537  0.34811083  0.11366902     1.93200
Cr263      Cr  0.38465213  0.33122220  0.04834287     1.39100
O264        O  0.36997830  0.32310120  0.09421939    -1.24600
O265        O  0.07556755  0.06032210  0.38964107    -0.86800
O266        O  0.12673284  0.06209675  0.33783774    -0.83900
C267        C  0.12780228  0.09324021  0.33097050     0.96600
O268        O  0.13726031  0.11324735  0.35614000    -0.83900
O269        O  0.15482991  0.13927068  0.42636183    -0.86600
C270        C  0.12816621  0.14542362  0.44511287     1.01100
O271        O  0.10659163  0.12283996  0.44961362    -0.79300
O272        O  0.07657497  0.06212160  0.45083416    -0.79500
C273        C  0.06184227  0.06882761  0.42020709     1.01100
O274        O  0.11104173  0.00841928  0.43343672    -0.86800
O275        O  0.16568440  0.01701529  0.38489340    -0.83900
C276        C  0.19136403  0.03159807  0.37119835     0.96600
O277        O  0.18978735  0.06252963  0.36333524    -0.83900
O278        O  0.20055837  0.08430236  0.43323448    -0.86500
C279        C  0.19657220  0.09300467  0.46671351     1.01100
O280        O  0.16732339  0.09628528  0.48046514    -0.79400
O281        O  0.13975432  0.03481120  0.47678103    -0.79500
C282        C  0.12597728  0.00862253  0.46523116     1.01100
Cr283      Cr  0.12058950  0.03870840  0.38812004     1.93700
Cr284      Cr  0.16824361  0.09826768  0.39565603     1.93200
Cr285      Cr  0.12335312  0.07833312  0.46141349     1.39100
O286        O  0.13747671  0.07177518  0.41503176    -1.24600
O287        O  0.37956122  0.17564616  0.67235513    -0.86800
O288        O  0.43158126  0.17728855  0.62145203    -0.96700
C289        C  0.44578012  0.16833932  0.59132066     0.96600
O290        O  0.43139457  0.17438247  0.56026926    -0.83900
O291        O  0.40158845  0.11352636  0.56162181    -0.86600
C292        C  0.37993742  0.09097880  0.56594336     1.01100
O293        O  0.35315821  0.09725563  0.58445755    -0.79300
O294        O  0.36975719  0.12418732  0.65464762    -0.79500
C295        C  0.37856526  0.14458295  0.67970066     1.01100
O296        O  0.34101229  0.21994059  0.62396409    -0.86800
O297        O  0.39622527  0.22829809  0.57621438    -0.83900
C298        C  0.38141491  0.22777282  0.54435944     0.96600
O299        O  0.36831945  0.20128536  0.53266754    -0.83900
O300        O  0.34107990  0.13958052  0.52950093    -0.86500
C301        C  0.31168961  0.14296434  0.54284817     1.01100
O302        O  0.30735581  0.15192467  0.57618379    -0.79400
O303        O  0.31688545  0.17458296  0.64587451    -0.79500
C304        C  0.31526262  0.20546087  0.63763372     1.01100
Cr305      Cr  0.38630768  0.19848654  0.62181515     1.93700
Cr306      Cr  0.38478223  0.15792392  0.54902593     1.93200
Cr307      Cr  0.33918963  0.13854014  0.61443311     1.39100
O308        O  0.37004625  0.16495693  0.59512231    -1.24600
O309        O  0.12474550  0.31143639  0.67240955    -0.86800
O310        O  0.07298978  0.31236751  0.62053037    -0.83900
C311        C  0.05929427  0.32128607  0.59002147     0.96600
O312        O  0.07413825  0.31459751  0.55941738    -0.83900
O313        O  0.10562085  0.37423752  0.56281799    -0.86600
C314        C  0.12774121  0.39627339  0.56698139     1.01100
O315        O  0.15444925  0.38944893  0.58522586    -0.79300
O316        O  0.13667621  0.36249929  0.65488715    -0.79500
C317        C  0.12706288  0.34238025  0.67990236     1.01100
O318        O  0.16237049  0.26601434  0.62434818    -0.86800
O319        O  0.10753383  0.25985158  0.57571407    -0.83900
C320        C  0.12270262  0.25999276  0.54398676     0.96600
O321        O  0.13648983  0.28622361  0.53230641    -0.83900
O322        O  0.16573392  0.34743893  0.52993199    -0.86500
C323        C  0.19507551  0.34361858  0.54327129     1.01100
O324        O  0.19908317  0.33395980  0.57645354    -0.79400
O325        O  0.18782594  0.31073853  0.64601702    -0.79500
C326        C  0.18859227  0.27986244  0.63775567     1.01100
Cr327      Cr  0.11773141  0.28920053  0.62159558     1.93700
Cr328      Cr  0.12135021  0.32988750  0.54908380     1.93200
Cr329      Cr  0.16709180  0.34759816  0.61476778     1.39100
O330        O  0.13563350  0.32208065  0.59511698    -1.24600
O331        O  0.43264806  0.42400803  0.38859852    -0.86800
O332        O  0.38082446  0.42500142  0.33736663    -0.83900
C333        C  0.37835608  0.39402219  0.33013760     0.96600
O334        O  0.36855568  0.37407152  0.35525014    -0.83900
O335        O  0.35061575  0.34780452  0.42526366    -0.86600
C336        C  0.37737147  0.34066187  0.44327213     1.01100
O337        O  0.39970242  0.36255369  0.44741363    -0.79300
O338        O  0.43168561  0.42224182  0.44973474    -0.79500
C339        C  0.44640003  0.41535303  0.41909857     1.01100
O340        O  0.39894440  0.47722448  0.43349482    -0.86800
O341        O  0.34382468  0.47105994  0.38504371    -0.83900
C342        C  0.31762323  0.45728768  0.37151434     0.96600
O343        O  0.31816953  0.42634711  0.36361902    -0.83900
O344        O  0.30673316  0.40399227  0.43364071    -0.86500
C345        C  0.31072071  0.39432483  0.46682863     1.01100
O346        O  0.34005343  0.39031197  0.48010777    -0.79400
O347        O  0.36980889  0.45125875  0.47703574    -0.79500
C348        C  0.38394501  0.47730449  0.46534303     1.01100
Cr349      Cr  0.38822001  0.44756220  0.38782506     1.93700
Cr350      Cr  0.33841402  0.38959822  0.39532938     1.93200
Cr351      Cr  0.38449104  0.40732118  0.46061498     1.39100
O352        O  0.37016406  0.41494339  0.41460695    -1.24600
C353        C  0.25695721  0.35044972  0.53796244    -0.14800
C354        C  0.22472131  0.35455963  0.52225893     0.07300
C355        C  0.22085265  0.37307427  0.48915884    -0.14800
C356        C  0.24884758  0.38748719  0.47211073    -0.14800
C357        C  0.28107470  0.38341672  0.48784385     0.07300
C358        C  0.28495029  0.36486084  0.52091540    -0.14800
H359        H  0.26053259  0.33645674  0.56376626     0.11300
H360        H  0.19619177  0.37703531  0.47691602     0.11300
H361        H  0.24527983  0.40144710  0.44628578     0.11300
H362        H  0.30961337  0.36086871  0.53314045     0.11300
C363        C  0.28267570  0.25947927  0.64175271    -0.14800
C364        C  0.28291340  0.22439252  0.64270424     0.07300
C365        C  0.25154380  0.20768207  0.64474110    -0.14800
C366        C  0.22093220  0.22549768  0.64418843    -0.14800
C367        C  0.22076178  0.26058638  0.64250776     0.07300
C368        C  0.25215789  0.27726920  0.64205094    -0.14800
H369        H  0.30617263  0.27327922  0.63992238     0.11300
H370        H  0.25059755  0.18073624  0.64508941     0.11300
H371        H  0.19735018  0.21174854  0.64437997     0.11300
H372        H  0.25316647  0.30417191  0.64025505     0.11300
C373        C  0.40740285  0.27968898  0.51737796    -0.14800
C374        C  0.38053375  0.25695474  0.51888684     0.07300
C375        C  0.35380475  0.26031504  0.49304087    -0.14800
C376        C  0.35347450  0.28643208  0.46689935    -0.14800
C377        C  0.38019365  0.30948007  0.46556558     0.07300
C378        C  0.40739992  0.30546000  0.49077734    -0.14800
H379        H  0.42860012  0.27724487  0.53634712     0.11300
H380        H  0.33282883  0.24288649  0.49340318     0.11300
H381        H  0.33191420  0.28908416  0.44848280     0.11300
H382        H  0.42832237  0.32294564  0.49083673     0.11300
C383        C  0.40936799  0.05689615  0.51647112    -0.14800
C384        C  0.38328739  0.05989490  0.54342973     0.07300
C385        C  0.35771781  0.03562301  0.54399329    -0.14800
C386        C  0.35798028  0.50932043  0.51816716    -0.14800
C387        C  0.38357638  0.50670721  0.49073403     0.07300
C388        C  0.40937373  0.03073390  0.49023548    -0.14800
H389        H  0.42930860  0.07541551  0.51482661     0.11300
H390        H  0.33698026  0.03741744  0.56373907     0.11300
H391        H  0.33773039  0.49110784  0.51937754     0.11300
H392        H  0.42965901  0.02910840  0.46989759     0.11300
C393        C  0.22381523  0.47772261  0.36584074    -0.14800
C394        C  0.22364723  0.01279095  0.36580058     0.07300
C395        C  0.25501067  0.02956303  0.36457610    -0.14800
C396        C  0.28558584  0.01175157  0.36523075    -0.14800
C397        C  0.28566872  0.47665671  0.36624805     0.07300
C398        C  0.25429747  0.45995627  0.36565158    -0.14800
H399        H  0.20028530  0.46391422  0.36696980     0.11300
H400        H  0.25595375  0.05651027  0.36491696     0.11300
H401        H  0.30917458  0.02548614  0.36578812     0.11300
H402        H  0.25324486  0.43302856  0.36681163     0.11300
C403        C  0.09917475  0.17899026  0.49509901    -0.14800
C404        C  0.12465171  0.17654551  0.46738842     0.07300
C405        C  0.14929825  0.20167548  0.46550322    -0.14800
C406        C  0.14859541  0.22843467  0.49070849    -0.14800
C407        C  0.12355537  0.23051539  0.51884219     0.07300
C408        C  0.09879013  0.20553616  0.52072231    -0.14800
H409        H  0.08000722  0.15978519  0.49779283     0.11300
H410        H  0.16956413  0.20029683  0.44510889     0.11300
H411        H  0.16807039  0.24738014  0.48849426     0.11300
H412        H  0.07900427  0.20667931  0.54170955     0.11300
C413        C  0.10140655  0.45462035  0.48867753    -0.14800
C414        C  0.12614113  0.97955602  0.49092271     0.07300
C415        C  0.14996162  0.47823930  0.52037402    -0.14800
C416        C  0.14954958  0.45218486  0.54651239    -0.14800
C417        C  0.12498354  0.42706090  0.54416323     0.07300
C418        C  0.10064458  0.42882566  0.51521025    -0.14800
H419        H  0.08248458  0.95525959  0.46674248     0.11300
H420        H  0.16930235  0.49727972  0.52298947     0.11300
H421        H  0.16889868  0.45129439  0.56796282     0.11300
H422        H  0.08158376  0.40955579  0.51217011     0.11300
C423        C  0.25834363  0.09886026  0.47221199    -0.14800
C424        C  0.22609146  0.10364905  0.48765514     0.07300
C425        C  0.22207787  0.12280689  0.52019291    -0.14800
C426        C  0.25001848  0.13721835  0.53701863    -0.14800
C427        C  0.28229000  0.13235066  0.52167163     0.07300
C428        C  0.28632131  0.11323453  0.48909545    -0.14800
H429        H  0.26191990  0.08436533  0.44679107     0.11300
H430        H  0.19735759  0.12735051  0.53208483     0.11300
H431        H  0.24638240  0.15175484  0.56240036     0.11300
H432        H  0.31105909  0.10870812  0.47724102     0.11300
C433        C  0.38476752  0.33407309  0.24823328    -0.14800
C434        C  0.38372040  0.35591320  0.21741644     0.07300
C435        C  0.38483280  0.39049712  0.22406168    -0.14800
C436        C  0.38504137  0.40299161  0.26076528    -0.14800
C437        C  0.38391875  0.38116244  0.29160049     0.07300
C438        C  0.38473110  0.34657623  0.28496220    -0.14800
H439        H  0.38394139  0.30735091  0.24402831     0.11300
H440        H  0.38425882  0.40800774  0.20084362     0.11300
H441        H  0.38441377  0.42971585  0.26494331     0.11300
H442        H  0.38407952  0.32908714  0.30820776     0.11300
C443        C  0.12113680  0.34582095  0.78620166    -0.14800
C444        C  0.12297404  0.38038734  0.79284808     0.07300
C445        C  0.12196450  0.40222066  0.76202011    -0.14800
C446        C  0.12141244  0.38973191  0.72529575    -0.14800
C447        C  0.12164763  0.35513985  0.71857974     0.07300
C448        C  0.12035188  0.33332165  0.74944369    -0.14800
H449        H  0.12156183  0.32832894  0.80943480     0.11300
H450        H  0.12326775  0.42893183  0.76618647     0.11300
H451        H  0.12215960  0.40725141  0.70208532     0.11300
H452        H  0.12045209  0.30659522  0.74522780     0.11300
C453        C  0.25660107  0.39356462  0.97786514    -0.14800
C454        C  0.22435760  0.38420618  0.99058507     0.07300
C455        C  0.22082288  0.36087983  0.01962743    -0.14800
C456        C  0.24926530  0.34643932  0.03516405    -0.14800
C457        C  0.28149774  0.35536242  0.02198742     0.07300
C458        C  0.28504799  0.37912353  0.99340383    -0.14800
H459        H  0.25978751  0.41152133  0.95527572     0.11300
H460        H  0.19615397  0.35287165  0.02930196     0.11300
H461        H  0.24605692  0.32843143  0.05768666     0.11300
H462        H  0.30972391  0.38706372  0.98368749     0.11300
C463        C  0.38415747  0.14138886  0.78585323    -0.14800
C464        C  0.38502346  0.10681090  0.79264432     0.07300
C465        C  0.38776074  0.08507415  0.76187842    -0.14800
C466        C  0.38744100  0.09755419  0.72508394    -0.14800
C467        C  0.38458725  0.13202454  0.71832136     0.07300
C468        C  0.38403692  0.15385762  0.74911437    -0.14800
H469        H  0.38219736  0.15887051  0.80897108     0.11300
H470        H  0.38851233  0.05836192  0.76615114     0.11300
H471        H  0.38814525  0.08007165  0.70186954     0.11300
H472        H  0.38179879  0.18048441  0.74485923     0.11300
C473        C  0.25364352  0.02847660  0.86707586    -0.14800
C474        C  0.28487579  0.01184250  0.86838508     0.07300
C475        C  0.28449130  0.47677957  0.86926809    -0.14800
C476        C  0.25384106  0.45891834  0.86936569    -0.14800
C477        C  0.22259712  0.47556220  0.86944448     0.07300
C478        C  0.22295844  0.01061615  0.86804772    -0.14800
H479        H  0.25287748  0.05542861  0.86692815     0.11300
H480        H  0.30793108  0.46310610  0.87063331     0.11300
H481        H  0.25463160  0.43199793  0.87095112     0.11300
H482        H  0.19949189  0.02428696  0.86832376     0.11300
C483        C  0.35669995  0.47954353  0.02045718    -0.14800
C484        C  0.38180185  0.48196707  0.99239827     0.07300
C485        C  0.40718466  0.45789573  0.99116722    -0.14800
C486        C  0.40725053  0.43173921  0.01723880    -0.14800
C487        C  0.38156335  0.42874286  0.04466362     0.07300
C488        C  0.35642028  0.45310434  0.04609777    -0.14800
H489        H  0.33684313  0.49791730  0.02222554     0.11300
H490        H  0.42707981  0.95944689  0.97031596     0.11300
H491        H  0.42685463  0.41314051  0.01497388     0.11300
H492        H  0.33605413  0.45126871  0.06635181     0.11300
C493        C  0.35561100  0.20243707  0.96563419    -0.14800
C494        C  0.38120533  0.17848996  0.96632583     0.07300
C495        C  0.40737939  0.18184926  0.99303283    -0.14800
C496        C  0.40756380  0.20813473  0.01888352    -0.14800
C497        C  0.38193724  0.23196314  0.01813223     0.07300
C498        C  0.35612622  0.22900803  0.99105752    -0.14800
H499        H  0.33478844  0.20023208  0.94607107     0.11300
H500        H  0.42729502  0.16353845  0.99478299     0.11300
H501        H  0.42792592  0.21006387  0.03907199     0.11300
H502        H  0.33599513  0.24712009  0.98984897     0.11300
C503        C  0.11727594  0.09702231  0.22524011    -0.14800
C504        C  0.12016241  0.13148741  0.21836440     0.07300
C505        C  0.12096695  0.15338817  0.24912268    -0.14800
C506        C  0.12151047  0.14093039  0.28590811    -0.14800
C507        C  0.12107651  0.10632532  0.29268568     0.07300
C508        C  0.11762773  0.08457502  0.26201062    -0.14800
H509        H  0.11621320  0.07949406  0.20208069     0.11300
H510        H  0.12307595  0.18003737  0.24476248     0.11300
H511        H  0.12380518  0.15841799  0.30899570     0.11300
H512        H  0.11697077  0.05785265  0.26627007     0.11300
C513        C  0.22223006  0.25912122  0.14283054    -0.14800
C514        C  0.22187105  0.22412558  0.14003637     0.07300
C515        C  0.25311944  0.20764522  0.13769893    -0.14800
C516        C  0.28373499  0.22565772  0.13720441    -0.14800
C517        C  0.28412123  0.26068480  0.13989262     0.07300
C518        C  0.25287045  0.27708506  0.14320581    -0.14800
H519        H  0.19873362  0.27270078  0.14426199     0.11300
H520        H  0.25386793  0.18081815  0.13476016     0.11300
H521        H  0.30713499  0.21213427  0.13411306     0.11300
H522        H  0.25200369  0.30400112  0.14471286     0.11300
C523        C  0.09563030  0.05449880  0.01786200    -0.14800
C524        C  0.12120493  0.05759623  0.04536335     0.07300
C525        C  0.14628047  0.03318859  0.04702110    -0.14800
C526        C  0.14638922  0.50691185  0.02124925    -0.14800
C527        C  0.12168209  0.50454347  0.99283726     0.07300
C528        C  0.09604083  0.02839667  0.99165222    -0.14800
H529        H  0.07599017  0.07304342  0.01555580     0.11300
H530        H  0.16651059  0.03499816  0.06739569     0.11300
H531        H  0.16636560  0.48868378  0.02310729     0.11300
H532        H  0.07632524  0.52680028  0.97064531     0.11300
C533        C  0.15084486  0.25806137  0.99164803    -0.14800
C534        C  0.12451432  0.25469691  0.01806596     0.07300
C535        C  0.09823867  0.27786512  0.01779786    -0.14800
C536        C  0.09848301  0.30407044  0.99178312    -0.14800
C537        C  0.12532104  0.30802598  0.96596299     0.07300
C538        C  0.15142161  0.28457439  0.96608954    -0.14800
H539        H  0.17141242  0.24035860  0.99114077     0.11300
H540        H  0.07741814  0.27550847  0.03733779     0.11300
H541        H  0.07808182  0.32194322  0.99280666     0.11300
H542        H  0.17266694  0.28718725  0.94718261     0.11300
C543        C  0.25562927  0.13724298  0.03638325    -0.14800
C544        C  0.22342771  0.13071712  0.02156443     0.07300
C545        C  0.21983971  0.11060268  0.98965169    -0.14800
C546        C  0.24821278  0.09702899  0.97285345    -0.14800
C547        C  0.28040486  0.10355686  0.98774659     0.07300
C548        C  0.28393896  0.12362474  0.01967623    -0.14800
H549        H  0.25895362  0.15259060  0.06123441     0.11300
H550        H  0.19518667  0.10476491  0.97824993     0.11300
H551        H  0.24498326  0.08176418  0.94791560     0.11300
H552        H  0.30855619  0.12951158  0.03114292     0.11300
C553        C  0.98596826  0.37581192  0.62246850    -0.14800
C554        C  0.97365341  0.38835321  0.58806857     0.07300
C555        C  0.98893189  0.37737984  0.55457736    -0.14800
C556        C  0.01573563  0.35473814  0.55535738    -0.14800
C557        C  0.02813582  0.34216501  0.58965019     0.07300
C558        C  0.01290901  0.35309782  0.62325828    -0.14800
H559        H  0.97443228  0.38316717  0.64882176     0.11300
H560        H  0.97991555  0.38604786  0.52753978     0.11300
H561        H  0.02708345  0.34741229  0.52890056     0.11300
H562        H  0.02205953  0.34438668  0.65022024     0.11300
C563        C  0.52051078  0.36629090  0.45638195    -0.14800
C564        C  0.53456517  0.35212745  0.42374074     0.07300
C565        C  0.51940652  0.35904673  0.38885345    -0.14800
C566        C  0.49125597  0.38039270  0.38685225    -0.14800
C567        C  0.47785740  0.39512301  0.41969784     0.07300
C568        C  0.49269876  0.38733325  0.45442565    -0.14800
H569        H  0.53162546  0.36163372  0.48372490     0.11300
H570        H  0.53002179  0.34903738  0.36317461     0.11300
H571        H  0.47993919  0.38528805  0.35969370     0.11300
H572        H  0.48282826  0.39756182  0.48036610     0.11300
C573        C  0.75293885  0.34901141  0.54958334    -0.14800
C574        C  0.78203915  0.35427969  0.52755199     0.07300
C575        C  0.78610519  0.33623656  0.49410855    -0.14800
C576        C  0.75929459  0.31734698  0.48022889    -0.14800
C577        C  0.72833651  0.31686134  0.49949906     0.07300
C578        C  0.72640185  0.32983460  0.53585806    -0.14800
H579        H  0.74985738  0.36113575  0.57660634     0.11300
H580        H  0.80900246  0.33841023  0.47762650     0.11300
H581        H  0.76108970  0.30718181  0.45204130     0.11300
H582        H  0.70270489  0.32965217  0.55108876     0.11300
C583        C  0.51444635  0.10913566  0.56022514    -0.14800
C584        C  0.52959266  0.10013006  0.59453409     0.07300
C585        C  0.51814367  0.11537208  0.62779270    -0.14800
C586        C  0.49192906  0.13876753  0.62670173    -0.14800
C587        C  0.47674935  0.14760208  0.59230589     0.07300
C588        C  0.48847378  0.13252539  0.55911669    -0.14800
H589        H  0.52288525  0.09828397  0.53396709     0.11300
H590        H  0.52974329  0.10956861  0.65456906     0.11300
H591        H  0.48320567  0.14956524  0.65287176     0.11300
H592        H  0.47704154  0.13821272  0.53221807     0.11300
C593        C  0.75286524  0.02647928  0.64014735    -0.14800
C594        C  0.72061560  0.01138820  0.63995851     0.07300
C595        C  0.71908607  0.47630750  0.63852463    -0.14800
C596        C  0.74872470  0.45700454  0.63709641    -0.14800
C597        C  0.78092709  0.47213270  0.63614219     0.07300
C598        C  0.78248289  0.00720485  0.63785014    -0.14800
H599        H  0.75522448  0.05333995  0.64062210     0.11300
H600        H  0.69487309  0.46370593  0.63789341     0.11300
H601        H  0.74635869  0.43018647  0.63531931     0.11300
H602        H  0.80667028  0.01984682  0.63694930     0.11300
C603        C  0.63428421  0.48641570  0.48643629    -0.14800
C604        C  0.62216615  0.48464653  0.52382526     0.07300
C605        C  0.61459482  0.45342644  0.53927782    -0.14800
C606        C  0.62067260  0.42454642  0.51854961    -0.14800
C607        C  0.63427292  0.42624766  0.48185928     0.07300
C608        C  0.64013625  0.45746166  0.46556939    -0.14800
H609        H  0.64013970  0.01022244  0.47356060     0.11300
H610        H  0.60517867  0.45124143  0.56781309     0.11300
H611        H  0.61540036  0.40069671  0.53166849     0.11300
H612        H  0.65044969  0.45945358  0.43740649     0.11300
C613        C  0.59842341  0.19946851  0.54442285    -0.14800
C614        C  0.62912650  0.18232630  0.54725762     0.07300
C615        C  0.65524323  0.19019569  0.52195616    -0.14800
C616        C  0.65033916  0.21369650  0.49338969    -0.14800
C617        C  0.61959041  0.23065976  0.49034935     0.07300
C618        C  0.59399890  0.22401250  0.51680434    -0.14800
H619        H  0.57763033  0.19331034  0.56309119     0.11300
H620        H  0.67895385  0.17680964  0.52306545     0.11300
H621        H  0.67083658  0.21907001  0.47396393     0.11300
H622        H  0.57030090  0.23731196  0.51552976     0.11300
C623        C  0.99074198  0.12351909  0.45509865    -0.14800
C624        C  0.97834590  0.13730995  0.42145257     0.07300
C625        C  0.99262859  0.12699680  0.38715191    -0.14800
C626        C  0.01872921  0.10355473  0.38657820    -0.14800
C627        C  0.03109958  0.08981609  0.42028367     0.07300
C628        C  0.01677379  0.10014048  0.45452397    -0.14800
H629        H  0.97999909  0.13044808  0.48199610     0.11300
H630        H  0.98333447  0.13670118  0.36069906     0.11300
H631        H  0.02964546  0.09666185  0.35974698     0.11300
H632        H  0.02601180  0.09049945  0.48103106     0.11300
C633        C  0.76244827  0.28130644  0.37338960    -0.14800
C634        C  0.72995047  0.26703291  0.37000063     0.07300
C635        C  0.72782252  0.23215460  0.36567629    -0.14800
C636        C  0.75711261  0.21225590  0.36574215    -0.14800
C637        C  0.78943891  0.22653887  0.37055076     0.07300
C638        C  0.79159097  0.26143712  0.37394528    -0.14800
H639        H  0.76541233  0.30792753  0.37712407     0.11300
H640        H  0.70343918  0.22005511  0.36356319     0.11300
H641        H  0.75429493  0.18549164  0.36358254     0.11300
H642        H  0.81583498  0.27343103  0.37790554     0.11300
C643        C  0.85444111  0.02686477  0.45763647    -0.14800
C644        C  0.88009693  0.05106107  0.46009110     0.07300
C645        C  0.90598818  0.04643802  0.48679589    -0.14800
C646        C  0.90542668  0.01930969  0.51151357    -0.14800
C647        C  0.87942545  0.49557325  0.50964464     0.07300
C648        C  0.85434463  0.49919395  0.48187325    -0.14800
H649        H  0.83393453  0.02983612  0.43783635     0.11300
H650        H  0.92609320  0.06464397  0.48982475     0.11300
H651        H  0.92535258  0.51691903  0.53213768     0.11300
H652        H  0.83403983  0.48112101  0.47966789     0.11300
C653        C  0.85640692  0.25071683  0.52138069    -0.14800
C654        C  0.88406090  0.24731320  0.49674271     0.07300
C655        C  0.91100604  0.26982955  0.49940452    -0.14800
C656        C  0.91003551  0.29567044  0.52576760    -0.14800
C657        C  0.88174176  0.29998855  0.54944670     0.07300
C658        C  0.85510723  0.27692767  0.54724392    -0.14800
H659        H  0.83530965  0.23347251  0.51999203     0.11300
H660        H  0.93283856  0.26733867  0.48130013     0.11300
H661        H  0.93093496  0.31318512  0.52642397     0.11300
H662        H  0.83269869  0.27990411  0.56434494     0.11300
C663        C  0.75009567  0.13625976  0.47321019    -0.14800
C664        C  0.78194842  0.12739787  0.48709132     0.07300
C665        C  0.78476935  0.10489498  0.51699194    -0.14800
C666        C  0.75588186  0.09183194  0.53327125    -0.14800
C667        C  0.72400999  0.10137550  0.52003864     0.07300
C668        C  0.72121773  0.12309157  0.48942253    -0.14800
H669        H  0.74746535  0.15329553  0.44966056     0.11300
H670        H  0.80907718  0.09709148  0.52734292     0.11300
H671        H  0.75851896  0.07495388  0.55702564     0.11300
H672        H  0.69688560  0.13090725  0.47904051     0.11300
C673        C  0.51814416  0.37856754  0.05721250    -0.14800
C674        C  0.52897721  0.39359550  0.09096664     0.07300
C675        C  0.51337035  0.38367753  0.12478468    -0.14800
C676        C  0.48746087  0.35962496  0.12476333    -0.14800
C677        C  0.47657681  0.34475523  0.09094241     0.07300
C678        C  0.49232818  0.35457151  0.05719468    -0.14800
H679        H  0.52998620  0.38499612  0.03067079     0.11300
H680        H  0.52140894  0.39426696  0.15135208     0.11300
H681        H  0.47547596  0.35316221  0.15121122     0.11300
H682        H  0.48439838  0.34399615  0.03058076     0.11300
C683        C  0.61224469  0.35472883  0.23189735    -0.14800
C684        C  0.62093585  0.38793016  0.22338494     0.07300
C685        C  0.62958814  0.40944369  0.25307627    -0.14800
C686        C  0.63189372  0.39735885  0.29006138    -0.14800
C687        C  0.62492298  0.36365781  0.29828241     0.07300
C688        C  0.61388152  0.34282059  0.26893449    -0.14800
H689        H  0.60537668  0.33756598  0.20959729     0.11300
H690        H  0.63660668  0.43509672  0.24739644     0.11300
H691        H  0.64028547  0.41414973  0.31206156     0.11300
H692        H  0.60831132  0.31676920  0.27422613     0.11300
C693        C  0.99102984  0.35527038  0.88408813    -0.14800
C694        C  0.97612374  0.34482347  0.91815169     0.07300
C695        C  0.98870629  0.35805841  0.95201698    -0.14800
C696        C  0.01516489  0.38124697  0.95197736    -0.14800
C697        C  0.02993369  0.39198184  0.91803670     0.07300
C698        C  0.01772109  0.37849280  0.88405828    -0.14800
H699        H  0.98173451  0.34592106  0.85748052     0.11300
H700        H  0.97761215  0.35099453  0.97879770     0.11300
H701        H  0.02424189  0.39057732  0.97868792     0.11300
H702        H  0.02903607  0.38561383  0.85742302     0.11300
C703        C  0.88634544  0.33550749  0.76129014    -0.14800
C704        C  0.88290819  0.35788612  0.79133118     0.07300
C705        C  0.88167674  0.39230830  0.78352139    -0.14800
C706        C  0.88128145  0.40387762  0.74635154    -0.14800
C707        C  0.88191085  0.38121145  0.71633734     0.07300
C708        C  0.88577163  0.34704605  0.72419668    -0.14800
H709        H  0.88766320  0.30892515  0.76633643     0.11300
H710        H  0.87941231  0.41027075  0.80612556     0.11300
H711        H  0.87850446  0.43031950  0.74116315     0.11300
H712        H  0.88684265  0.32897858  0.70157707     0.11300
C713        C  0.78442602  0.37338750  0.02304362    -0.14800
C714        C  0.78056169  0.35576030  0.98934258     0.07300
C715        C  0.74822377  0.35058671  0.97419751    -0.14800
C716        C  0.72009628  0.36317053  0.99233571    -0.14800
C717        C  0.72395065  0.38088640  0.02596276     0.07300
C718        C  0.75625896  0.38593301  0.04123743    -0.14800
H719        H  0.80915729  0.37810331  0.03486826     0.11300
H720        H  0.74464449  0.33720074  0.94798901     0.11300
H721        H  0.69539342  0.35856276  0.98038536     0.11300
H722        H  0.75978633  0.39940016  0.06740150     0.11300
C723        C  0.51439518  0.13272512  0.88859146    -0.14800
C724        C  0.52812767  0.14366284  0.92297434     0.07300
C725        C  0.51560009  0.12966468  0.95655435    -0.14800
C726        C  0.48999351  0.10552683  0.95584524    -0.14800
C727        C  0.47619169  0.09459775  0.92153032     0.07300
C728        C  0.48870586  0.10852307  0.88788150    -0.14800
H729        H  0.52383616  0.14251615  0.86216405     0.11300
H730        H  0.52594328  0.13700669  0.98351962     0.11300
H731        H  0.48066740  0.09574765  0.98232563     0.11300
H732        H  0.47822809  0.10115910  0.86098828     0.11300
C733        C  0.61666267  0.10212606  0.78652214    -0.14800
C734        C  0.62048946  0.13639759  0.79384436     0.07300
C735        C  0.62425875  0.15842339  0.76340322    -0.14800
C736        C  0.62631662  0.14613943  0.72659329    -0.14800
C737        C  0.62436154  0.11163175  0.71951823     0.07300
C738        C  0.61845874  0.08988918  0.74978492    -0.14800
H739        H  0.61356891  0.08451859  0.80943393     0.11300
H740        H  0.62743925  0.18491605  0.76817665     0.11300
H741        H  0.63061069  0.16360481  0.70378671     0.11300
H742        H  0.61668324  0.06324645  0.74530196     0.11300
C743        C  0.72000169  0.26332606  0.87123537    -0.14800
C744        C  0.71946531  0.22825592  0.87220993     0.07300
C745        C  0.75063833  0.21149824  0.87167131    -0.14800
C746        C  0.78138166  0.22924329  0.87126390    -0.14800
C747        C  0.78196784  0.26431563  0.87044934     0.07300
C748        C  0.75076883  0.28107645  0.86990029    -0.14800
H749        H  0.69658085  0.27710352  0.87195828     0.11300
H750        H  0.75130567  0.18456990  0.87303046     0.11300
H751        H  0.80478130  0.21544232  0.87215247     0.11300
H752        H  0.75012808  0.30803128  0.86990928     0.11300
C753        C  0.59683587  0.05411222  0.99153493    -0.14800
C754        C  0.62284048  0.05808445  0.96466912     0.07300
C755        C  0.64821105  0.03386138  0.96296125    -0.14800
C756        C  0.64807824  0.50695206  0.98820125    -0.14800
C757        C  0.62297604  0.50402227  0.01621608     0.07300
C758        C  0.59711951  0.02765120  0.01722865    -0.14800
H759        H  0.57689106  0.07234398  0.99389162     0.11300
H760        H  0.66876040  0.03629372  0.94301322     0.11300
H761        H  0.66820233  0.48887059  0.98647108     0.11300
H762        H  0.57710657  0.02568836  0.03790245     0.11300
C763        C  0.59621738  0.27911136  0.99710064    -0.14800
C764        C  0.62125519  0.25468813  0.99869984     0.07300
C765        C  0.64577811  0.25666149  0.02738375    -0.14800
C766        C  0.64607006  0.28321691  0.05295718    -0.14800
C767        C  0.62145024  0.30810056  0.05088801     0.07300
C768        C  0.59610065  0.30529396  0.02311036    -0.14800
H769        H  0.57671980  0.27795324  0.97581392     0.11300
H770        H  0.66532786  0.23801159  0.02950414     0.11300
H771        H  0.66616659  0.28482342  0.07351258     0.11300
H772        H  0.57682514  0.32417190  0.02036636     0.11300
C773        C  0.99061850  0.10684346  0.05581749    -0.14800
C774        C  0.97692033  0.09464623  0.08969414     0.07300
C775        C  0.99001267  0.10674785  0.12389539    -0.14800
C776        C  0.01601655  0.13060861  0.12413528    -0.14800
C777        C  0.02941872  0.14303300  0.09018070     0.07300
C778        C  0.01648805  0.13067259  0.05605896    -0.14800
H779        H  0.98090602  0.09843138  0.02895956     0.11300
H780        H  0.97971623  0.09827028  0.15050152     0.11300
H781        H  0.02587789  0.13904405  0.15092003     0.11300
H782        H  0.02663941  0.13913843  0.02938044     0.11300
C783        C  0.88528950  0.08397112  0.24737832    -0.14800
C784        C  0.88480145  0.10639916  0.21710098     0.07300
C785        C  0.88700709  0.14081938  0.22462607    -0.14800
C786        C  0.88763919  0.15260082  0.26171756    -0.14800
C787        C  0.88578458  0.13017514  0.29198081     0.07300
C788        C  0.88567548  0.09572673  0.28437541    -0.14800
H789        H  0.88365784  0.05736294  0.24255619     0.11300
H790        H  0.88695326  0.15876139  0.20180337     0.11300
H791        H  0.88779741  0.17922948  0.26665003     0.11300
H792        H  0.88450404  0.07773175  0.30711823     0.11300
C793        C  0.75242609  0.46005570  0.14003205    -0.14800
C794        C  0.72122825  0.47678201  0.14124192     0.07300
C795        C  0.72184121  0.01184355  0.14248002    -0.14800
C796        C  0.75261492  0.02962772  0.14226804    -0.14800
C797        C  0.78379505  0.01297120  0.13985598     0.07300
C798        C  0.78318958  0.47786752  0.13887959    -0.14800
H799        H  0.75302910  0.43313972  0.13842969     0.11300
H800        H  0.69843060  0.02561661  0.14310751     0.11300
H801        H  0.75191282  0.05657317  0.14254334     0.11300
H802        H  0.80653494  0.46411088  0.13665586     0.11300
C803        C  0.90771222  0.46023976  0.01702808    -0.14800
C804        C  0.88219287  0.48419155  0.01618178     0.07300
C805        C  0.85679466  0.98171141  0.98859185    -0.14800
C806        C  0.85629915  0.45526548  0.96305054    -0.14800
C807        C  0.88151996  0.43095913  0.96414091     0.07300
C808        C  0.90755663  0.43405777  0.99104585    -0.14800
H809        H  0.92784881  0.46188960  0.03752640     0.11300
H810        H  0.83683637  0.00000690  0.98718453     0.11300
H811        H  0.83566758  0.45334098  0.94320564     0.11300
H812        H  0.92724516  0.41551090  0.99299721     0.11300
C813        C  0.90720427  0.18332482  0.01526310    -0.14800
C814        C  0.88244397  0.18064626  0.04377694     0.07300
C815        C  0.85791172  0.20554114  0.04646899    -0.14800
C816        C  0.85781907  0.23214589  0.02101130    -0.14800
C817        C  0.88190479  0.23424514  0.99184005     0.07300
C818        C  0.90674676  0.20966428  0.98937508    -0.14800
H819        H  0.92629716  0.16433006  0.01199686     0.11300
H820        H  0.83825278  0.20400644  0.06760543     0.11300
H821        H  0.83840205  0.25087196  0.02377419     0.11300
H822        H  0.92588458  0.21090045  0.96763332     0.11300
C823        C  0.74959277  0.09941307  0.03611279    -0.14800
C824        C  0.78160228  0.10666656  0.02103670     0.07300
C825        C  0.78467839  0.12770291  0.98980397    -0.14800
C826        C  0.75598424  0.14133593  0.97382904    -0.14800
C827        C  0.72397473  0.13391984  0.98885676     0.07300
C828        C  0.72096287  0.11309160  0.02022936    -0.14800
H829        H  0.74666585  0.08344052  0.06053309     0.11300
H830        H  0.80917317  0.13419611  0.97831717     0.11300
H831        H  0.75882076  0.15729044  0.94937859     0.11300
H832        H  0.69650282  0.10661026  0.03182533     0.11300
O833        O  0.93203513  0.56414175  0.11924211    -0.86800
O834        O  0.88007167  0.56338734  0.17042463    -0.83900
C835        C  0.87860199  0.59429726  0.17830953     0.96600
O836        O  0.86928968  0.61480628  0.15366745    -0.83900
O837        O  0.85242059  0.64220249  0.08391450    -0.86600
C838        C  0.87923850  0.64929731  0.06573714     1.01100
O839        O  0.90110562  0.62728759  0.06106872    -0.79300
O840        O  0.93159763  0.56725378  0.05807731    -0.79500
C841        C  0.94606897  0.57343446  0.08903657     1.01100
O842        O  0.89757011  0.51267738  0.07356961    -0.86800
O843        O  0.84215436  0.51856836  0.12139675    -0.83900
C844        C  0.81617118  0.53233216  0.13512003     0.96600
O845        O  0.81749230  0.56309775  0.14390520    -0.83900
O846        O  0.80751221  0.58636778  0.07457934    -0.86500
C847        C  0.81146857  0.59629403  0.04151305     1.01100
O848        O  0.84076580  0.60069830  0.02810417    -0.79400
O849        O  0.86909044  0.53941433  0.03039861    -0.79500
C850        C  0.88273060  0.51318728  0.04175825     1.01100
Cr851      Cr  0.88715100  0.54148300  0.11953850     1.93700
Cr852      Cr  0.83905080  0.60015114  0.11310650     1.93200
Cr853      Cr  0.88481161  0.58290572  0.04736500     1.39100
O854        O  0.87026830  0.57483964  0.09336165    -1.24600
O855        O  0.62337676  0.67876333  0.84164832    -0.86800
O856        O  0.57186572  0.67614386  0.89374808    -0.83900
C857        C  0.55841866  0.66572775  0.92384501     0.96600
O858        O  0.57308843  0.67155457  0.95477312    -0.83900
O859        O  0.60428874  0.61206240  0.94961466    -0.86600
C860        C  0.62609591  0.59017364  0.94391979     1.01100
O861        O  0.65267589  0.59784778  0.92565728    -0.79300
O862        O  0.63374576  0.62707460  0.85748682    -0.79500
C863        C  0.62506698  0.64802224  0.83304831     1.01100
O864        O  0.66137182  0.72255311  0.89149032    -0.86800
O865        O  0.60634495  0.72709163  0.94043323    -0.83900
C866        C  0.62124348  0.72611447  0.97223689     0.96600
O867        O  0.63537242  0.69982517  0.98269978    -0.83900
O868        O  0.66479271  0.63899551  0.98221837    -0.86500
C869        C  0.69391773  0.64377375  0.96843911     1.01100
O870        O  0.69752826  0.65359386  0.93527781    -0.79400
O871        O  0.68564950  0.67852501  0.86713392    -0.79500
C872        C  0.68712058  0.70903985  0.87688136     1.01100
Cr873      Cr  0.61654863  0.69934800  0.89343093     1.93700
Cr874      Cr  0.62020217  0.65640014  0.96440038     1.93200
Cr875      Cr  0.66500592  0.64073237  0.89737390     1.39100
O876        O  0.63412966  0.66562874  0.91850117    -1.24600
O877        O  0.87841799  0.81449826  0.83768971    -0.86800
O878        O  0.93068056  0.81506272  0.88839722    -0.83900
C879        C  0.94484623  0.82406305  0.91859874     0.96600
O880        O  0.93033637  0.81773455  0.94955656    -0.83900
O881        O  0.89964868  0.87753571  0.94692037    -0.86600
C882        C  0.87787704  0.89964682  0.94245673     1.01100
O883        O  0.85089122  0.89274815  0.92466313    -0.79300
O884        O  0.86770295  0.86575389  0.85493520    -0.79500
C885        C  0.87695208  0.84546068  0.83007187     1.01100
O886        O  0.84068979  0.76951918  0.88686271    -0.86800
O887        O  0.89635467  0.76311359  0.93410420    -0.83900
C888        C  0.88181465  0.76335662  0.96615851     0.96600
O889        O  0.86801696  0.78945426  0.97768489    -0.83900
O890        O  0.83953767  0.85059776  0.98041563    -0.86500
C891        C  0.81007461  0.84645382  0.96743998     1.01100
O892        O  0.80566175  0.83744008  0.93410179    -0.79400
O893        O  0.81585246  0.81411305  0.86471372    -0.79500
C894        C  0.81452808  0.78342493  0.87380003     1.01100
Cr895      Cr  0.88569795  0.79231653  0.88836916     1.93700
Cr896      Cr  0.88350678  0.83313327  0.96069327     1.93200
Cr897      Cr  0.83742694  0.85097675  0.89546429     1.39100
O898        O  0.86871265  0.82541326  0.91486686    -1.24600
O899        O  0.57253296  0.92587719  0.12137488    -0.86800
O900        O  0.62417305  0.92903207  0.17408187    -0.83900
C901        C  0.62548254  0.89849650  0.18358922     0.96600
O902        O  0.63368886  0.87695059  0.15956834    -0.83900
O903        O  0.65152361  0.84655572  0.09113728    -0.86600
C904        C  0.62510365  0.83974866  0.07222120     1.01100
O905        O  0.60399233  0.86218268  0.06622846    -0.79300
O906        O  0.57432270  0.92213277  0.06037846    -0.79500
C907        C  0.55927570  0.91584942  0.09098889     1.01100
O908        O  0.60797062  0.97644083  0.07449076    -0.86800
O909        O  0.66275238  0.97148158  0.12356223    -0.83900
C910        C  0.68859878  0.95773499  0.13770316     0.96600
O911        O  0.68696836  0.92726715  0.14784241    -0.83900
O912        O  0.69829120  0.90034501  0.08047467    -0.86500
C913        C  0.69431458  0.89089320  0.04721650     1.01100
O914        O  0.66508293  0.88724429  0.03349889    -0.79400
O915        O  0.63738784  0.94909579  0.03261861    -0.79500
C916        C  0.62313847  0.97543635  0.04279538     1.01100
Cr917      Cr  0.61761850  0.94886007  0.12182584     1.93700
Cr918      Cr  0.66517446  0.88932729  0.11877314     1.93200
Cr919      Cr  0.62108989  0.90592331  0.05114159     1.39100
O920        O  0.63498148  0.91483557  0.09714131    -1.24600
O921        O  0.93450116  0.66888287  0.39203390    -0.86800
O922        O  0.88340000  0.67262686  0.33982483    -0.83900
C923        C  0.88003998  0.64203710  0.33094275     0.96600
O924        O  0.86920417  0.62143152  0.35479087    -0.83900
O925        O  0.85081544  0.59217968  0.42282981    -0.86600
C926        C  0.87752238  0.58359554  0.44018666     1.01100
O927        O  0.90017575  0.60492898  0.44588924    -0.79300
O928        O  0.93295576  0.66414450  0.45297804    -0.79500
C929        C  0.94781273  0.65862278  0.42214330     1.01100
O930        O  0.90088670  0.71993264  0.43921760    -0.86800
O931        O  0.84677697  0.71729780  0.38992088    -0.83900
C932        C  0.82021202  0.70513311  0.37548032     0.96600
O933        O  0.81966226  0.67449239  0.36608230    -0.83900
O934        O  0.80835205  0.64939180  0.43452796    -0.86500
C935        C  0.81192015  0.63786119  0.46693609     1.01100
O936        O  0.84094314  0.63182433  0.47988508    -0.79400
O937        O  0.87116224  0.69228184  0.48103338    -0.79500
C938        C  0.88524217  0.71875256  0.47061661     1.01100
Cr939      Cr  0.89051703  0.69283920  0.39177314     1.93700
Cr940      Cr  0.83942108  0.63579498  0.39553995     1.93200
Cr941      Cr  0.88556057  0.64915977  0.46201031     1.39100
O942        O  0.87172620  0.65934532  0.41638006    -1.24600
O943        O  0.62710168  0.56742986  0.67427513    -0.86800
O944        O  0.57424427  0.56950407  0.62449300    -0.83900
C945        C  0.56000195  0.57857999  0.59438539     0.96600
O946        O  0.57373914  0.57147156  0.56341231    -0.83900
O947        O  0.60776712  0.63065776  0.56646521    -0.86600
C948        C  0.63137151  0.65137105  0.56955336     1.01100
O949        O  0.65880002  0.64266977  0.58523108    -0.79300
O950        O  0.64220555  0.61767940  0.65632446    -0.79500
C951        C  0.63089373  0.59833210  0.68130511     1.01100
O952        O  0.66175203  0.51970373  0.62554992    -0.86800
O953        O  0.60613995  0.51551898  0.57927823    -0.83900
C954        C  0.62019413  0.51522459  0.54694528     0.96600
O955        O  0.63304578  0.54134972  0.53374650    -0.83900
O956        O  0.66518170  0.60059905  0.53059632    -0.86500
C957        C  0.69442582  0.59360160  0.54233513     1.01100
O958        O  0.69894421  0.58389657  0.57537319    -0.79400
O959        O  0.68997075  0.56304995  0.64596449    -0.79500
C960        C  0.68914319  0.53224453  0.63747195     1.01100
Cr961      Cr  0.61811061  0.54478337  0.62429213     1.93700
Cr962      Cr  0.62078026  0.58540497  0.55156100     1.93200
Cr963      Cr  0.67000366  0.60047085  0.61492074     1.39100
O964        O  0.63638155  0.57675107  0.59696707    -1.24600
O965        O  0.57694742  0.81078370  0.40611685    -0.86800
O966        O  0.61992113  0.82177680  0.34579900    -0.83900
C967        C  0.63238106  0.84957063  0.33616481     0.96600
O968        O  0.65230750  0.86512386  0.35754311    -0.83900
O969        O  0.64781128  0.89242511  0.42761252    -0.86600
C970        C  0.64376449  0.89505739  0.46265962     1.01100
O971        O  0.64793315  0.86976533  0.48238833    -0.79300
O972        O  0.58724108  0.84752008  0.45218654    -0.79500
C973        C  0.56796410  0.83563607  0.42702769     1.01100
O974        O  0.62969014  0.75769148  0.43120593    -0.86800
O975        O  0.66965651  0.77510618  0.37564315    -0.83900
C976        C  0.69899521  0.78810267  0.37598110     0.96600
O977        O  0.70304315  0.81867569  0.38366954    -0.83900
O978        O  0.69953444  0.84419814  0.45272617    -0.86500
C979        C  0.69829256  0.82069750  0.47688970     1.01100
O980        O  0.67107083  0.80526866  0.48476547    -0.79400
O981        O  0.60234318  0.78438685  0.47263190    -0.79500
C982        C  0.61606250  0.75813906  0.46292420     1.01100
Cr983      Cr  0.62457028  0.79349105  0.39186786     1.93700
Cr984      Cr  0.67316539  0.85316158  0.40635286     1.93200
Cr985      Cr  0.62840148  0.82629207  0.46897904     1.39100
O986        O  0.64203047  0.82444082  0.42123841    -1.24600
O987        O  0.87625626  0.92260651  0.66782312    -0.86800
O988        O  0.92817873  0.91891092  0.61643387    -0.83900
C989        C  0.94247926  0.90915787  0.58663681     0.96600
O990        O  0.92797559  0.91464130  0.55551135    -0.83900
O991        O  0.89848672  0.85459309  0.56340053    -0.86600
C992        C  0.87740394  0.83193458  0.56970421     1.01100
O993        O  0.85025974  0.83876655  0.58723424    -0.79300
O994        O  0.86479584  0.87066330  0.65418048    -0.79500
C995        C  0.87472874  0.89213314  0.67738703     1.01100
O996        O  0.83865415  0.96462122  0.61660224    -0.86800
O997        O  0.89356935  0.96825603  0.56778045    -0.83900
C998        C  0.87893432  0.96673348  0.53583296     0.96600
O999        O  0.86513966  0.93996105  0.52538130    -0.83900
O1000       O  0.83817135  0.87553573  0.52751162    -0.86500
C1001       C  0.80884119  0.87624037  0.54165137     1.01100
O1002       O  0.80382238  0.89170414  0.57166635    -0.79400
O1003       O  0.81220478  0.92065174  0.63934858    -0.79500
C1004       C  0.81224478  0.95151766  0.63058459     1.01100
Cr1005     Cr  0.88333161  0.94164816  0.61549087     1.93700
Cr1006     Cr  0.88129459  0.89730398  0.54569637     1.93200
Cr1007     Cr  0.83503903  0.88215391  0.61221025     1.39100
O1008       O  0.86611515  0.90724959  0.59104917    -1.24600
O1009       O  0.07341794  0.67413815  0.12044984    -0.86800
O1010       O  0.12520944  0.67477187  0.17186757    -0.83900
C1011       C  0.12623163  0.64383468  0.17961335     0.96600
O1012       O  0.13512408  0.62334251  0.15479171    -0.83900
O1013       O  0.15170118  0.59566981  0.08529031    -0.86600
C1014       C  0.12492097  0.58907099  0.06689416     1.01100
O1015       O  0.10363629  0.61152355  0.06165308    -0.79300
O1016       O  0.07426025  0.67199750  0.05930928    -0.79500
C1017       C  0.05971017  0.66502729  0.09004704     1.01100
O1018       O  0.10838643  0.72575681  0.07499627    -0.86800
O1019       O  0.16342877  0.71915489  0.12281526    -0.83900
C1020       C  0.18939298  0.70503969  0.13602628     0.96600
O1021       O  0.18794456  0.67425645  0.14481454    -0.83900
O1022       O  0.19799213  0.65031124  0.07587426    -0.86500
C1023       C  0.19382447  0.64101825  0.04261667     1.01100
O1024       O  0.16447682  0.63737388  0.02920417    -0.79400
O1025       O  0.13732284  0.69925771  0.03199421    -0.79500
C1026       C  0.12367261  0.72547885  0.04339650     1.01100
Cr1027     Cr  0.11838057  0.69666304  0.12090236     1.93700
Cr1028     Cr  0.16584684  0.63741617  0.11433137     1.93200
Cr1029     Cr  0.12076201  0.65577181  0.04846236     1.39100
O1030       O  0.13517489  0.66330404  0.09455748    -1.24600
O1031       O  0.38128238  0.56284677  0.83857597    -0.86800
O1032       O  0.43241288  0.56354859  0.89074932    -0.83900
C1033       C  0.44580846  0.57266774  0.92132377     0.96600
O1034       O  0.43095864  0.56571596  0.95189273    -0.83900
O1035       O  0.39997787  0.62535583  0.94881811    -0.86600
C1036       C  0.37807975  0.64731997  0.94422180     1.01100
O1037       O  0.35143704  0.64032375  0.92581354    -0.79300
O1038       O  0.36990891  0.61384305  0.85630337    -0.79500
C1039       C  0.37937618  0.59384743  0.83122893     1.01100
O1040       O  0.34309533  0.51725168  0.88648159    -0.86800
O1041       O  0.39761048  0.51104950  0.93524881    -0.83900
C1042       C  0.38228635  0.51109950  0.96686186     0.96600
O1043       O  0.36819733  0.53707965  0.97820387    -0.83900
O1044       O  0.33941280  0.59789061  0.98055534    -0.86500
C1045       C  0.31023032  0.59360064  0.96687294     1.01100
O1046       O  0.30650562  0.58437988  0.93351696    -0.79400
O1047       O  0.31843510  0.56184906  0.86408948    -0.79500
C1048       C  0.31717360  0.53108322  0.87278180     1.01100
Cr1049     Cr  0.38777629  0.54039035  0.88936730     1.93700
Cr1050     Cr  0.38385291  0.58080743  0.96194189     1.93200
Cr1051     Cr  0.33893046  0.59859729  0.89583485     1.39100
O1052       O  0.37001805  0.57317925  0.91572825    -1.24600
O1053       O  0.12733635  0.92420006  0.83862958    -0.86800
O1054       O  0.07481678  0.92305800  0.88884516    -0.83900
C1055       C  0.06057480  0.91361205  0.91886423     0.96600
O1056       O  0.07448358  0.92039908  0.94997302    -0.83900
O1057       O  0.10622220  0.86101926  0.94801031    -0.86600
C1058       C  0.12855304  0.83935963  0.94408660     1.01100
O1059       O  0.15560748  0.84680320  0.92661833    -0.79300
O1060       O  0.13864907  0.87314246  0.85641174    -0.79500
C1061       C  0.12915084  0.89319106  0.83135215     1.01100
O1062       O  0.16414887  0.97000136  0.88749288    -0.86800
O1063       O  0.10793882  0.97581031  0.93471240    -0.83900
C1064       C  0.12206139  0.97559465  0.96698155     0.96600
O1065       O  0.13595130  0.94962143  0.97865323    -0.83900
O1066       O  0.16546418  0.88920864  0.98185337    -0.86500
C1067       C  0.19492515  0.89404024  0.96909658     1.01100
O1068       O  0.19943218  0.90335886  0.93584438    -0.79400
O1069       O  0.18937153  0.92546477  0.86574415    -0.79500
C1070       C  0.19032951  0.95627290  0.87414509     1.01100
Cr1071     Cr  0.11938353  0.94656191  0.88910950     1.93700
Cr1072     Cr  0.12138935  0.90579073  0.96167694     1.93200
Cr1073     Cr  0.16837937  0.88867302  0.89702518     1.39100
O1074       O  0.13653130  0.91376289  0.91595863    -1.24600
O1075       O  0.43193291  0.81354577  0.12032316    -0.86800
O1076       O  0.37986263  0.81222843  0.17139042    -0.83900
C1077       C  0.37789641  0.84317888  0.17887166     0.96600
O1078       O  0.36838636  0.86330953  0.15396134    -0.83900
O1079       O  0.35127608  0.89019442  0.08436693    -0.86600
C1080       C  0.37826682  0.89748706  0.06663758     1.01100
O1081       O  0.40036847  0.87567121  0.06234314    -0.79300
O1082       O  0.43174583  0.81627767  0.05917353    -0.79500
C1083       C  0.44599852  0.82293871  0.09015874     1.01100
O1084       O  0.39796095  0.76125034  0.07482418    -0.86800
O1085       O  0.34261540  0.76675333  0.12244450    -0.83900
C1086       C  0.31636497  0.78027708  0.13581411     0.96600
O1087       O  0.31732510  0.81100907  0.14469518    -0.83900
O1088       O  0.30697487  0.83378316  0.07514296    -0.86500
C1089       C  0.31108663  0.84407130  0.04224501     1.01100
O1090       O  0.34044752  0.84852875  0.02900978    -0.79400
O1091       O  0.36940641  0.78753802  0.03134053    -0.79500
C1092       C  0.38288630  0.76137034  0.04312822     1.01100
Cr1093     Cr  0.38730793  0.79017613  0.12063939     1.93700
Cr1094     Cr  0.33834505  0.84810977  0.11366718     1.93200
Cr1095     Cr  0.38465153  0.83122140  0.04834043     1.39100
O1096       O  0.36997815  0.82310056  0.09421727    -1.24600
O1097       O  0.07556595  0.56031953  0.38964317    -0.86800
O1098       O  0.12672966  0.56209543  0.33783765    -0.83900
C1099       C  0.12779904  0.59323908  0.33097035     0.96600
O1100       O  0.13725814  0.61324593  0.35613956    -0.83900
O1101       O  0.15482852  0.63927038  0.42635980    -0.86600
C1102       C  0.12816469  0.64542338  0.44511049     1.01100
O1103       O  0.10659004  0.62283979  0.44961088    -0.79300
O1104       O  0.07657486  0.56212071  0.45083611    -0.79500
C1105       C  0.06184122  0.56882545  0.42020934     1.01100
O1106       O  0.11104287  0.50841895  0.43343980    -0.86800
O1107       O  0.16568378  0.51701463  0.38489441    -0.83900
C1108       C  0.19136334  0.53159752  0.37119945     0.96600
O1109       O  0.18978578  0.56252866  0.36333462    -0.83900
O1110       O  0.20055739  0.58430256  0.43323320    -0.86500
C1111       C  0.19657170  0.59300683  0.46671162     1.01100
O1112       O  0.16732299  0.59628774  0.48046353    -0.79400
O1113       O  0.13975461  0.53481319  0.47678321    -0.79500
C1114       C  0.12597780  0.50862392  0.46523477     1.01100
Cr1115     Cr  0.12058850  0.53870711  0.38812134     1.93700
Cr1116     Cr  0.16824215  0.59826699  0.39565491     1.93200
Cr1117     Cr  0.12335262  0.57833400  0.46141346     1.39100
O1118       O  0.13747571  0.57177466  0.41503180    -1.24600
O1119       O  0.37956041  0.67564556  0.67235494    -0.86800
O1120       O  0.43158060  0.67728875  0.62145290    -0.96700
C1121       C  0.44577990  0.66833983  0.59132175     0.96600
O1122       O  0.43139463  0.67438249  0.56027005    -0.83900
O1123       O  0.40158683  0.61352652  0.56162158    -0.86600
C1124       C  0.37993465  0.59097980  0.56594219     1.01100
O1125       O  0.35315506  0.59725778  0.58445518    -0.79300
O1126       O  0.36975352  0.62418738  0.65464644    -0.79500
C1127       C  0.37856371  0.64458215  0.67969958     1.01100
O1128       O  0.34101254  0.71994191  0.62396372    -0.86800
O1129       O  0.39622580  0.72829891  0.57621538    -0.83900
C1130       C  0.38141530  0.72777404  0.54436056     0.96600
O1131       O  0.36832044  0.70128667  0.53266768    -0.83900
O1132       O  0.34107960  0.63958283  0.52949935    -0.86500
C1133       C  0.31168917  0.64296817  0.54284570     1.01100
O1134       O  0.30735526  0.65192902  0.57618116    -0.79400
O1135       O  0.31688440  0.67458492  0.64587343    -0.79500
C1136       C  0.31526234  0.70546280  0.63763270     1.01100
Cr1137     Cr  0.38630739  0.69848696  0.62181549     1.93700
Cr1138     Cr  0.38478212  0.65792486  0.54902575     1.93200
Cr1139     Cr  0.33918750  0.63854218  0.61443133     1.39100
O1140       O  0.37004569  0.66495791  0.59512194    -1.24600
O1141       O  0.12474478  0.81143603  0.67240784    -0.86800
O1142       O  0.07298919  0.81236512  0.62052958    -0.83900
C1143       C  0.05929303  0.82128300  0.59002087     0.96600
O1144       O  0.07413663  0.81459460  0.55941640    -0.83900
O1145       O  0.10561861  0.87423568  0.56281337    -0.86600
C1146       C  0.12773906  0.89627154  0.56697696     1.01100
O1147       O  0.15444658  0.88944733  0.58522245    -0.79300
O1148       O  0.13667381  0.86249910  0.65488464    -0.79500
C1149       C  0.12706085  0.84238007  0.67990007     1.01100
O1150       O  0.16237040  0.76601411  0.62434704    -0.86800
O1151       O  0.10753344  0.75984932  0.57571402    -0.83900
C1152       C  0.12270241  0.75999022  0.54398688     0.96600
O1153       O  0.13648912  0.78622107  0.53230601    -0.83900
O1154       O  0.16573210  0.84743685  0.52992926    -0.86500
C1155       C  0.19507356  0.84361823  0.54326967     1.01100
O1156       O  0.19908065  0.83395867  0.57645164    -0.79400
O1157       O  0.18782448  0.81073917  0.64601547    -0.79500
C1158       C  0.18859175  0.77986314  0.63775420     1.01100
Cr1159     Cr  0.11773091  0.78919919  0.62159458     1.93700
Cr1160     Cr  0.12134851  0.82988506  0.54908164     1.93200
Cr1161     Cr  0.16708958  0.84759765  0.61476546     1.39100
O1162       O  0.13563179  0.82207947  0.59511521    -1.24600
O1163       O  0.43264685  0.92400775  0.38859873    -0.86800
O1164       O  0.38082350  0.92499994  0.33736606    -0.83900
C1165       C  0.37835387  0.89402068  0.33013720     0.96600
O1166       O  0.36855365  0.87407038  0.35525025    -0.83900
O1167       O  0.35061256  0.84780461  0.42526423    -0.86600
C1168       C  0.37736841  0.84066151  0.44327221     1.01100
O1169       O  0.39969981  0.86255291  0.44741300    -0.79300
O1170       O  0.43168396  0.92224032  0.44973496    -0.79500
C1171       C  0.44639877  0.91535244  0.41909873     1.01100
O1172       O  0.39894224  0.97722405  0.43349453    -0.86800
O1173       O  0.34382318  0.97105907  0.38504217    -0.83900
C1174       C  0.31762210  0.95728681  0.37151189     0.96600
O1175       O  0.31816845  0.92634624  0.36361703    -0.83900
O1176       O  0.30673124  0.90399367  0.43363914    -0.86500
C1177       C  0.31071805  0.89432699  0.46682739     1.01100
O1178       O  0.34005054  0.89031270  0.48010678    -0.79400
O1179       O  0.36980746  0.95125782  0.47703554    -0.79500
C1180       C  0.38394386  0.97730353  0.46534344     1.01100
Cr1181     Cr  0.38821853  0.94756149  0.38782450     1.93700
Cr1182     Cr  0.33841202  0.88959800  0.39532877     1.93200
Cr1183     Cr  0.38448893  0.90732047  0.46061446     1.39100
O1184       O  0.37016234  0.91494288  0.41460632    -1.24600
C1185       C  0.25695394  0.85046769  0.53797247    -0.14800
C1186       C  0.22471955  0.85456224  0.52225948     0.07300
C1187       C  0.22085143  0.87306401  0.48915026    -0.14800
C1188       C  0.24884546  0.88747788  0.47210121    -0.14800
C1189       C  0.28107127  0.88342107  0.48784280     0.07300
C1190       C  0.28494604  0.86487978  0.52092473    -0.14800
H1191       H  0.26052902  0.83648580  0.56378391     0.11300
H1192       H  0.19619148  0.87701334  0.47689975     0.11300
H1193       H  0.24527827  0.90142646  0.44626874     0.11300
H1194       H  0.30960794  0.86089934  0.53315751     0.11300
C1195       C  0.28267538  0.75948161  0.64174213    -0.14800
C1196       C  0.28291351  0.72439507  0.64270240     0.07300
C1197       C  0.25154427  0.70768475  0.64474751    -0.14800
C1198       C  0.22093247  0.72549993  0.64419478    -0.14800
C1199       C  0.22076178  0.76058826  0.64250580     0.07300
C1200       C  0.25215759  0.77727146  0.64204024    -0.14800
H1201       H  0.30617226  0.77328170  0.63990494     0.11300
H1202       H  0.25059818  0.68073888  0.64510273     0.11300
H1203       H  0.19735074  0.71175088  0.64439316     0.11300
H1204       H  0.25316558  0.80417343  0.64023749     0.11300
C1205       C  0.40740604  0.77968557  0.51737176    -0.14800
C1206       C  0.38053287  0.75695638  0.51888907     0.07300
C1207       C  0.35379851  0.76032072  0.49305089    -0.14800
C1208       C  0.35346719  0.78643691  0.46690843    -0.14800
C1209       C  0.38019040  0.80947993  0.46556595     0.07300
C1210       C  0.40740167  0.80545581  0.49077007    -0.14800
H1211       H  0.42860699  0.77723781  0.53633427     0.11300
H1212       H  0.33281956  0.74289584  0.49341999     0.11300
H1213       H  0.33190298  0.78909239  0.44849815     0.11300
H1214       H  0.42832762  0.82293762  0.49082251     0.11300
C1215       C  0.40937335  0.55688992  0.51648191    -0.14800
C1216       C  0.38328387  0.55989562  0.54342880     0.07300
C1217       C  0.35770642  0.53563145  0.54397959    -0.14800
C1218       C  0.35799032  0.00931147  0.51818151    -0.14800
C1219       C  0.38357702  0.00670538  0.49073621     0.07300
C1220       C  0.40938058  0.53072808  0.49024562    -0.14800
H1221       H  0.42932015  0.57540296  0.51484750     0.11300
H1222       H  0.33696196  0.53743172  0.56371546     0.11300
H1223       H  0.33774631  0.99109299  0.51940200     0.11300
H1224       H  0.42967322  0.52909646  0.46991735     0.11300
C1225       C  0.22381452  0.97772256  0.36583796    -0.14800
C1226       C  0.22364730  0.51279098  0.36580377     0.07300
C1227       C  0.25501059  0.52956368  0.36458134    -0.14800
C1228       C  0.28558594  0.51175242  0.36523624    -0.14800
C1229       C  0.28566790  0.97665586  0.36624426     0.07300
C1230       C  0.25429647  0.95995567  0.36564859    -0.14800
H1231       H  0.20028447  0.96391454  0.36696810     0.11300
H1232       H  0.25595312  0.55651045  0.36492314     0.11300
H1233       H  0.30917499  0.52548770  0.36579472     0.11300
H1234       H  0.25324355  0.93302839  0.36680954     0.11300
C1235       C  0.09917381  0.67898913  0.49509753    -0.14800
C1236       C  0.12465076  0.67654455  0.46738710     0.07300
C1237       C  0.14929848  0.70167359  0.46550328    -0.14800
C1238       C  0.14859616  0.72843196  0.49070973    -0.14800
C1239       C  0.12355560  0.73051273  0.51884278     0.07300
C1240       C  0.09878964  0.70553413  0.52072188    -0.14800
H1241       H  0.08000532  0.65978424  0.49779037     0.11300
H1242       H  0.16956412  0.70029493  0.44510977     0.11300
H1243       H  0.16807172  0.74737681  0.48849648     0.11300
H1244       H  0.07900367  0.70667740  0.54170861     0.11300
C1245       C  0.10140126  0.95462230  0.48867750    -0.14800
C1246       C  0.12614116  0.47955867  0.49092843     0.07300
C1247       C  0.14996708  0.97823195  0.52036221    -0.14800
C1248       C  0.14955450  0.95217802  0.54650112    -0.14800
C1249       C  0.12498266  0.92705898  0.54415835     0.07300
C1250       C  0.10063895  0.92882781  0.51521067    -0.14800
H1251       H  0.08249410  0.45525379  0.46673790     0.11300
H1252       H  0.16931221  0.99726865  0.52297276     0.11300
H1253       H  0.16890744  0.95128404  0.56794664     0.11300
H1254       H  0.08157388  0.90956186  0.51217544     0.11300
C1255       C  0.25834303  0.59886812  0.47220611    -0.14800
C1256       C  0.22609119  0.60365298  0.48765189     0.07300
C1257       C  0.22207769  0.62280792  0.52019183    -0.14800
C1258       C  0.25001810  0.63721976  0.53701762    -0.14800
C1259       C  0.28228939  0.63235534  0.52166866     0.07300
C1260       C  0.28632064  0.61324274  0.48908971    -0.14800
H1261       H  0.26191931  0.58437587  0.44678350     0.11300
H1262       H  0.19735778  0.62734851  0.53208582     0.11300
H1263       H  0.24638200  0.65175355  0.56240134     0.11300
H1264       H  0.31105774  0.60871920  0.47723353     0.11300
C1265       C  0.38475648  0.83407103  0.24823235    -0.14800
C1266       C  0.38371734  0.85591150  0.21741549     0.07300
C1267       C  0.38483607  0.89049509  0.22406113    -0.14800
C1268       C  0.38504437  0.90298959  0.26076484    -0.14800
C1269       C  0.38391500  0.88116032  0.29159990     0.07300
C1270       C  0.38471973  0.84657392  0.28496133    -0.14800
H1271       H  0.38392460  0.80734907  0.24402720     0.11300
H1272       H  0.38426793  0.90800622  0.20084249     0.11300
H1273       H  0.38442255  0.92971357  0.26494304     0.11300
H1274       H  0.38406227  0.82908473  0.30820641     0.11300
C1275       C  0.12113380  0.84582042  0.78619905    -0.14800
C1276       C  0.12297073  0.88038670  0.79284581     0.07300
C1277       C  0.12196043  0.90222022  0.76201794    -0.14800
C1278       C  0.12140854  0.88973163  0.72529350    -0.14800
C1279       C  0.12164466  0.85513968  0.71857725     0.07300
C1280       C  0.12034902  0.83332128  0.74944107    -0.14800
H1281       H  0.12155922  0.82832804  0.80943231     0.11300
H1282       H  0.12326318  0.92893135  0.76618453     0.11300
H1283       H  0.12215535  0.90725142  0.70208286     0.11300
H1284       H  0.12044966  0.80659498  0.74522502     0.11300
C1285       C  0.25660289  0.89355943  0.97785539    -0.14800
C1286       C  0.22435896  0.88420988  0.99058252     0.07300
C1287       C  0.22082300  0.86089384  0.01963516    -0.14800
C1288       C  0.24926424  0.84645269  0.03517334    -0.14800
C1289       C  0.28149698  0.85536506  0.02198836     0.07300
C1290       C  0.28504871  0.87911764  0.99339598    -0.14800
H1291       H  0.25979041  0.91150819  0.95525916     0.11300
H1292       H  0.19615377  0.85289338  0.02931649     0.11300
H1293       H  0.24605449  0.82845209  0.05770328     0.11300
H1294       H  0.30972494  0.88705004  0.98367287     0.11300
C1295       C  0.38416941  0.64138622  0.78585180    -0.14800
C1296       C  0.38502828  0.60680783  0.79264214     0.07300
C1297       C  0.38775783  0.58507106  0.76187553    -0.14800
C1298       C  0.38743613  0.59755132  0.72508119    -0.14800
C1299       C  0.38458818  0.63202244  0.71831948     0.07300
C1300       C  0.38404697  0.65385520  0.74911292    -0.14800
H1301       H  0.38221601  0.65886753  0.80896987     0.11300
H1302       H  0.38850406  0.55835801  0.76614777     0.11300
H1303       H  0.38813381  0.58006908  0.70186695     0.11300
H1304       H  0.38181426  0.68048319  0.74485843     0.11300
C1305       C  0.25364729  0.52847431  0.86706591    -0.14800
C1306       C  0.28487892  0.51183972  0.86838796     0.07300
C1307       C  0.28448926  0.97678201  0.86924864    -0.14800
C1308       C  0.25383930  0.95891992  0.86934426    -0.14800
C1309       C  0.22259479  0.97556300  0.86943788     0.07300
C1310       C  0.22296151  0.51061489  0.86803965    -0.14800
H1311       H  0.25288196  0.55542620  0.86690572     0.11300
H1312       H  0.30792983  0.96310882  0.87060260     0.11300
H1313       H  0.25463082  0.93199881  0.87091717     0.11300
H1314       H  0.19949533  0.52428597  0.86830441     0.11300
C1315       C  0.35670054  0.97954711  0.02046271    -0.14800
C1316       C  0.38179984  0.98196986  0.99240079     0.07300
C1317       C  0.40718066  0.95789666  0.99116560    -0.14800
C1318       C  0.40724696  0.93173903  0.01723558    -0.14800
C1319       C  0.38156211  0.92874321  0.04466308     0.07300
C1320       C  0.35642108  0.95310664  0.04610180    -0.14800
H1321       H  0.33684525  0.99792239  0.02223450     0.11300
H1322       H  0.42708563  0.45944671  0.97032011     0.11300
H1323       H  0.42684950  0.91313881  0.01496719     0.11300
H1324       H  0.33605695  0.95127164  0.06635806     0.11300
C1325       C  0.35561038  0.70243456  0.96563329    -0.14800
C1326       C  0.38120344  0.67848619  0.96632737     0.07300
C1327       C  0.40737508  0.68184386  0.99303759    -0.14800
C1328       C  0.40755925  0.70812990  0.01888738    -0.14800
C1329       C  0.38193513  0.73196066  0.01813240     0.07300
C1330       C  0.35612546  0.72900621  0.99105582    -0.14800
H1331       H  0.33478902  0.70023053  0.94606778     0.11300
H1332       H  0.42728922  0.66353174  0.99479031     0.11300
H1333       H  0.42792023  0.71005791  0.03907824     0.11300
H1334       H  0.33599581  0.74711961  0.98984482     0.11300
C1335       C  0.11726388  0.59702483  0.22524028    -0.14800
C1336       C  0.12015860  0.63148943  0.21836486     0.07300
C1337       C  0.12096997  0.65338942  0.24912355    -0.14800
C1338       C  0.12151308  0.64093083  0.28590866    -0.14800
C1339       C  0.12107207  0.60632563  0.29268594     0.07300
C1340       C  0.11761543  0.58457667  0.26201071    -0.14800
H1341       H  0.11619522  0.57949729  0.20208049     0.11300
H1342       H  0.12308529  0.68003833  0.24476367     0.11300
H1343       H  0.12381368  0.65841786  0.30899636     0.11300
H1344       H  0.11695229  0.55785441  0.26626977     0.11300
C1345       C  0.22223073  0.75912038  0.14281996    -0.14800
C1346       C  0.22187211  0.72412427  0.14003308     0.07300
C1347       C  0.25312067  0.70764364  0.13770200    -0.14800
C1348       C  0.28373623  0.72565604  0.13720736    -0.14800
C1349       C  0.28412193  0.76068354  0.13988912     0.07300
C1350       C  0.25287093  0.77708429  0.14319511    -0.14800
H1351       H  0.19873435  0.77270016  0.14424587     0.11300
H1352       H  0.25386946  0.68081567  0.13476856     0.11300
H1353       H  0.30713656  0.71213240  0.13412144     0.11300
H1354       H  0.25200395  0.80400054  0.14469647     0.11300
C1355       C  0.09563322  0.55449993  0.01786066    -0.14800
C1356       C  0.12120581  0.55759544  0.04536449     0.07300
C1357       C  0.14628040  0.53318694  0.04702390    -0.14800
C1358       C  0.14638886  0.00691317  0.02124676    -0.14800
C1359       C  0.12168035  0.00454332  0.99283643     0.07300
C1360       C  0.09604423  0.52839828  0.99165072    -0.14800
H1361       H  0.07599417  0.57304575  0.01555284     0.11300
H1362       H  0.16650915  0.53499539  0.06740006     0.11300
H1363       H  0.16636640  0.98868598  0.02310344     0.11300
H1364       H  0.07632053  0.02679740  0.97064873     0.11300
C1365       C  0.15084694  0.75805874  0.99164353    -0.14800
C1366       C  0.12451650  0.75469396  0.01806196     0.07300
C1367       C  0.09824110  0.77786210  0.01779461    -0.14800
C1368       C  0.09848468  0.80406813  0.99178091    -0.14800
C1369       C  0.12532267  0.80802435  0.96596054     0.07300
C1370       C  0.15142295  0.78457268  0.96608601    -0.14800
H1371       H  0.17141352  0.74035685  0.99113561     0.11300
H1372       H  0.07741991  0.77550505  0.03733573     0.11300
H1373       H  0.07808412  0.82194030  0.99280523     0.11300
H1374       H  0.17266885  0.78718608  0.94717821     0.11300
C1375       C  0.25563121  0.63723565  0.03638272    -0.14800
C1376       C  0.22342930  0.63070716  0.02156647     0.07300
C1377       C  0.21984072  0.61058922  0.98965643    -0.14800
C1378       C  0.24821387  0.59701648  0.97285689    -0.14800
C1379       C  0.28040641  0.60354862  0.98774636     0.07300
C1380       C  0.28394082  0.62361830  0.01967456    -0.14800
H1381       H  0.25895596  0.65258546  0.06123178     0.11300
H1382       H  0.19518738  0.60474886  0.97825726     0.11300
H1383       H  0.24498420  0.58174972  0.94792073     0.11300
H1384       H  0.30855830  0.62950807  0.03113872     0.11300
C1385       C  0.98597834  0.87582295  0.62246834    -0.14800
C1386       C  0.97365307  0.88835073  0.58806682     0.07300
C1387       C  0.98892009  0.87736263  0.55457514    -0.14800
C1388       C  0.01572312  0.85472015  0.55535618    -0.14800
C1389       C  0.02813415  0.84216111  0.58965050     0.07300
C1390       C  0.01291844  0.85310813  0.62325896    -0.14800
H1391       H  0.97445172  0.88318993  0.64882219     0.11300
H1392       H  0.97989520  0.88601930  0.52753677     0.11300
H1393       H  0.02706174  0.84738251  0.52889868     0.11300
H1394       H  0.02207786  0.84440830  0.65022202     0.11300
C1395       C  0.52050737  0.86628590  0.45638108    -0.14800
C1396       C  0.53456527  0.85212812  0.42373875     0.07300
C1397       C  0.51941026  0.85905327  0.38885093    -0.14800
C1398       C  0.49125934  0.88039891  0.38685066    -0.14800
C1399       C  0.47785676  0.89512311  0.41969776     0.07300
C1400       C  0.49269491  0.88732781  0.45442577    -0.14800
H1401       H  0.53161973  0.86162431  0.48372457     0.11300
H1402       H  0.53002861  0.84904880  0.36317133     0.11300
H1403       H  0.47994558  0.88529879  0.35969178     0.11300
H1404       H  0.48282129  0.89755169  0.48036743     0.11300
C1405       C  0.75293677  0.84901513  0.54958381    -0.14800
C1406       C  0.78203786  0.85428240  0.52755342     0.07300
C1407       C  0.78610469  0.83623820  0.49411087    -0.14800
C1408       C  0.75929453  0.81734826  0.48023087    -0.14800
C1409       C  0.72833589  0.81686324  0.49949983     0.07300
C1410       C  0.72639990  0.82983797  0.53585822    -0.14800
H1411       H  0.74985449  0.86114021  0.57660597     0.11300
H1412       H  0.80900273  0.83841100  0.47762958     0.11300
H1413       H  0.76109056  0.80718201  0.45204401     0.11300
H1414       H  0.70270303  0.82965614  0.55108761     0.11300
C1415       C  0.51444544  0.60913542  0.56022819    -0.14800
C1416       C  0.52959279  0.60013181  0.59453721     0.07300
C1417       C  0.51814535  0.61537620  0.62779501    -0.14800
C1418       C  0.49193073  0.63877157  0.62670346    -0.14800
C1419       C  0.47674965  0.64760362  0.59230748     0.07300
C1420       C  0.48847308  0.63252509  0.55911907    -0.14800
H1421       H  0.52288329  0.59828193  0.53397062     0.11300
H1422       H  0.52974621  0.60957440  0.65457167     0.11300
H1423       H  0.48320833  0.64957097  0.65287276     0.11300
H1424       H  0.47703968  0.63821072  0.53222011     0.11300
C1425       C  0.75286474  0.52647950  0.64014939    -0.14800
C1426       C  0.72061492  0.51138890  0.63995890     0.07300
C1427       C  0.71908747  0.97630674  0.63852591    -0.14800
C1428       C  0.74872643  0.95700408  0.63709817    -0.14800
C1429       C  0.78092865  0.97213279  0.63614275     0.07300
C1430       C  0.78248211  0.50720467  0.63785178    -0.14800
H1431       H  0.75522447  0.55334006  0.64062568     0.11300
H1432       H  0.69487444  0.96370458  0.63789584     0.11300
H1433       H  0.74636092  0.93018621  0.63532258     0.11300
H1434       H  0.80666950  0.51984609  0.63695222     0.11300
C1435       C  0.63427100  0.98641575  0.48642920    -0.14800
C1436       C  0.62216445  0.98464586  0.52382272     0.07300
C1437       C  0.61460447  0.95342513  0.53928005    -0.14800
C1438       C  0.62068299  0.92454550  0.51855194    -0.14800
C1439       C  0.63427284  0.92624738  0.48185679     0.07300
C1440       C  0.64012382  0.95746176  0.46556231    -0.14800
H1441       H  0.64016240  0.51022157  0.47357128     0.11300
H1442       H  0.60519745  0.95123962  0.56781916     0.11300
H1443       H  0.61541985  0.90069537  0.53167500     0.11300
H1444       H  0.65042837  0.95945433  0.43739509     0.11300
C1445       C  0.59841982  0.69946793  0.54442306    -0.14800
C1446       C  0.62912442  0.68232844  0.54726095     0.07300
C1447       C  0.65524336  0.69020153  0.52196375    -0.14800
C1448       C  0.65033989  0.71370277  0.49339763    -0.14800
C1449       C  0.61958943  0.73066244  0.49035323     0.07300
C1450       C  0.59399588  0.72401225  0.51680467    -0.14800
H1451       H  0.57762577  0.69330723  0.56308785     0.11300
H1452       H  0.67895501  0.67681773  0.52307539     0.11300
H1453       H  0.67083886  0.71907893  0.47397481     0.11300
H1454       H  0.57029645  0.73730919  0.51552709     0.11300
C1455       C  0.99074466  0.62352126  0.45510094    -0.14800
C1456       C  0.97834513  0.63730757  0.42145422     0.07300
C1457       C  0.99262411  0.62698987  0.38715326    -0.14800
C1458       C  0.01872440  0.60354760  0.38658031    -0.14800
C1459       C  0.03109834  0.58981346  0.42028623     0.07300
C1460       C  0.01677625  0.60014243  0.45452683    -0.14800
H1461       H  0.98000469  0.63045410  0.48199874     0.11300
H1462       H  0.98332722  0.63669048  0.36070042     0.11300
H1463       H  0.02963792  0.59665082  0.35974806     0.11300
H1464       H  0.02601706  0.59050517  0.48103408     0.11300
C1465       C  0.76244753  0.78130382  0.37339494    -0.14800
C1466       C  0.72995002  0.76703034  0.37000210     0.07300
C1467       C  0.72782261  0.73215240  0.36567413    -0.14800
C1468       C  0.75711283  0.71225393  0.36573971    -0.14800
C1469       C  0.78943879  0.72653677  0.37055178     0.07300
C1470       C  0.79159040  0.76143475  0.37395057    -0.14800
H1471       H  0.76541127  0.80792454  0.37713241     0.11300
H1472       H  0.70343925  0.72005286  0.36355788     0.11300
H1473       H  0.75429555  0.68548979  0.36357684     0.11300
H1474       H  0.81583377  0.77342844  0.37791385     0.11300
C1475       C  0.85443290  0.52686633  0.45764168    -0.14800
C1476       C  0.88009527  0.55105671  0.46008662     0.07300
C1477       C  0.90599369  0.54642721  0.48678114    -0.14800
C1478       C  0.90543262  0.51929956  0.51149981    -0.14800
C1479       C  0.87942665  0.99557644  0.50964777     0.07300
C1480       C  0.85435286  0.99919189  0.48186744    -0.14800
H1481       H  0.83392057  0.52984259  0.43784942     0.11300
H1482       H  0.92610479  0.56462836  0.48980180     0.11300
H1483       H  0.92534120  0.01693417  0.53215917     0.11300
H1484       H  0.83405324  0.98111381  0.47965374     0.11300
C1485       C  0.85640194  0.75071901  0.52137467    -0.14800
C1486       C  0.88405878  0.74731199  0.49674126     0.07300
C1487       C  0.91100567  0.76982609  0.49940601    -0.14800
C1488       C  0.91003457  0.79566779  0.52576818    -0.14800
C1489       C  0.88173885  0.79998885  0.54944354     0.07300
C1490       C  0.85510207  0.77693075  0.54723694    -0.14800
H1491       H  0.83530368  0.73347712  0.51998321     0.11300
H1492       H  0.93283988  0.76733266  0.48130506     0.11300
H1493       H  0.93093574  0.81318048  0.52642719     0.11300
H1494       H  0.83269153  0.77990980  0.56433459     0.11300
C1495       C  0.75009362  0.63625813  0.47320831    -0.14800
C1496       C  0.78194609  0.62739318  0.48708781     0.07300
C1497       C  0.78476623  0.60488680  0.51698516    -0.14800
C1498       C  0.75587828  0.59182462  0.53326431    -0.14800
C1499       C  0.72400677  0.60137279  0.52003498     0.07300
C1500       C  0.72121517  0.62309116  0.48942089    -0.14800
H1501       H  0.74746398  0.65329612  0.44966089     0.11300
H1502       H  0.80907384  0.59708049  0.52733423     0.11300
H1503       H  0.75851474  0.57494433  0.55701668     0.11300
H1504       H  0.69688314  0.63091035  0.47904138     0.11300
C1505       C  0.51815261  0.87855748  0.05721134    -0.14800
C1506       C  0.52897731  0.89359485  0.09096372     0.07300
C1507       C  0.51336221  0.88368634  0.12478031    -0.14800
C1508       C  0.48745259  0.85963402  0.12475964    -0.14800
C1509       C  0.47657661  0.84475502  0.09094056     0.07300
C1510       C  0.49233627  0.85456166  0.05719426    -0.14800
H1511       H  0.53000124  0.88497817  0.03067167     0.11300
H1512       H  0.52139413  0.89428358  0.15134669     0.11300
H1513       H  0.47546103  0.85317908  0.15120580     0.11300
H1514       H  0.48441294  0.84397851  0.03058154     0.11300
C1515       C  0.61224876  0.85472302  0.23189451    -0.14800
C1516       C  0.62093501  0.88792590  0.22338327     0.07300
C1517       C  0.62958380  0.90943996  0.25307530    -0.14800
C1518       C  0.63189003  0.89735474  0.29006010    -0.14800
C1519       C  0.62492349  0.86365274  0.29828016     0.07300
C1520       C  0.61388639  0.84281438  0.26893137    -0.14800
H1521       H  0.60538395  0.83755962  0.20959384     0.11300
H1522       H  0.63659883  0.93509399  0.24739638     0.11300
H1523       H  0.64027870  0.91414643  0.31206103     0.11300
H1524       H  0.60831991  0.81676178  0.27422235     0.11300
C1525       C  0.99102912  0.85526845  0.88408928    -0.14800
C1526       C  0.97612509  0.84481876  0.91815247     0.07300
C1527       C  0.98871027  0.85805040  0.95201864    -0.14800
C1528       C  0.01516884  0.88123911  0.95197845    -0.14800
C1529       C  0.02993474  0.89197759  0.91803796     0.07300
C1530       C  0.01772007  0.87849098  0.88405898    -0.14800
H1531       H  0.98173134  0.84592100  0.85747990     0.11300
H1532       H  0.97761866  0.85098437  0.97879806     0.11300
H1533       H  0.02424826  0.89056757  0.97869069     0.11300
H1534       H  0.02903260  0.88561437  0.85742429     0.11300
C1535       C  0.88634728  0.83550666  0.76129030    -0.14800
C1536       C  0.88290976  0.85788511  0.79133141     0.07300
C1537       C  0.88167898  0.89230746  0.78352187    -0.14800
C1538       C  0.88128449  0.90387682  0.74635186    -0.14800
C1539       C  0.88191393  0.88121080  0.71633755     0.07300
C1540       C  0.88577430  0.84704527  0.72419677    -0.14800
H1541       H  0.88766465  0.80892399  0.76633653     0.11300
H1542       H  0.87941452  0.91026938  0.80612543     0.11300
H1543       H  0.87850792  0.93031879  0.74116366     0.11300
H1544       H  0.88684542  0.82897813  0.70157736     0.11300
C1545       C  0.78442680  0.87338485  0.02304634    -0.14800
C1546       C  0.78056251  0.85575986  0.98934376     0.07300
C1547       C  0.74822469  0.85058849  0.97419771    -0.14800
C1548       C  0.72009724  0.86317255  0.99233580    -0.14800
C1549       C  0.72395165  0.88088654  0.02596423     0.07300
C1550       C  0.75625983  0.88593058  0.04124023    -0.14800
H1551       H  0.80915807  0.87809879  0.03487205     0.11300
H1552       H  0.74464523  0.83720394  0.94798777     0.11300
H1553       H  0.69539491  0.85856672  0.98038455     0.11300
H1554       H  0.75978719  0.89939620  0.06740575     0.11300
C1555       C  0.51440092  0.63271879  0.88859040    -0.14800
C1556       C  0.52812806  0.64366216  0.92297364     0.07300
C1557       C  0.51559573  0.62966941  0.95655424    -0.14800
C1558       C  0.48998987  0.60553097  0.95584512    -0.14800
C1559       C  0.47619351  0.59459605  0.92152985     0.07300
C1560       C  0.48871232  0.60851615  0.88788050    -0.14800
H1561       H  0.52384594  0.64250557  0.86216259     0.11300
H1562       H  0.52593451  0.63701614  0.98351973     0.11300
H1563       H  0.48065979  0.59575601  0.98232607     0.11300
H1564       H  0.47823886  0.60114743  0.86098679     0.11300
C1565       C  0.61665729  0.60212857  0.78652228    -0.14800
C1566       C  0.62048833  0.63639960  0.79384476     0.07300
C1567       C  0.62426241  0.65842494  0.76340402    -0.14800
C1568       C  0.62632107  0.64614093  0.72659436    -0.14800
C1569       C  0.62436192  0.61163351  0.71951904     0.07300
C1570       C  0.61845410  0.58989164  0.74978517    -0.14800
H1571       H  0.61355971  0.58452158  0.80943394     0.11300
H1572       H  0.62744643  0.68491753  0.76817788     0.11300
H1573       H  0.63061907  0.66360594  0.70378815     0.11300
H1574       H  0.61667510  0.56324882  0.74530187     0.11300
C1575       C  0.72000036  0.76332873  0.87123808    -0.14800
C1576       C  0.71946351  0.72825843  0.87220750     0.07300
C1577       C  0.75063618  0.71150022  0.87166282    -0.14800
C1578       C  0.78137977  0.72924474  0.87125554    -0.14800
C1579       C  0.78196660  0.76431711  0.87044712     0.07300
C1580       C  0.75076788  0.78107857  0.86990308    -0.14800
H1581       H  0.69658018  0.77710635  0.87196541     0.11300
H1582       H  0.75130315  0.68457182  0.87301743     0.11300
H1583       H  0.80477937  0.71544314  0.87213965     0.11300
H1584       H  0.75012764  0.80803359  0.86991654     0.11300
C1585       C  0.59683906  0.55411084  0.99153255    -0.14800
C1586       C  0.62284590  0.55808498  0.96466995     0.07300
C1587       C  0.64821892  0.53386407  0.96296599    -0.14800
C1588       C  0.64807132  0.00694980  0.98819695    -0.14800
C1589       C  0.62297254  0.00402237  0.01621591     0.07300
C1590       C  0.59712158  0.52764968  0.01722597    -0.14800
H1591       H  0.57689221  0.57234136  0.99388667     0.11300
H1592       H  0.66877059  0.53629820  0.94302090     0.11300
H1593       H  0.66819394  0.98886695  0.98646393     0.11300
H1594       H  0.57710656  0.52568517  0.03789674     0.11300
C1595       C  0.59621451  0.77911139  0.99710076    -0.14800
C1596       C  0.62125192  0.75468773  0.99870096     0.07300
C1597       C  0.64577427  0.75666073  0.02738549    -0.14800
C1598       C  0.64606650  0.78321660  0.05295817    -0.14800
C1599       C  0.62144772  0.80810103  0.05088757     0.07300
C1600       C  0.59609825  0.80529448  0.02310981    -0.14800
H1601       H  0.57671746  0.77795340  0.97581370     0.11300
H1602       H  0.66532334  0.73801065  0.02950669     0.11300
H1603       H  0.66616281  0.78482290  0.07351394     0.11300
H1604       H  0.57682317  0.82417316  0.02036494     0.11300
C1605       C  0.99061916  0.60684378  0.05581495    -0.14800
C1606       C  0.97692291  0.59464470  0.08969184     0.07300
C1607       C  0.99001669  0.60674495  0.12389299    -0.14800
C1608       C  0.01602017  0.63060613  0.12413266    -0.14800
C1609       C  0.02942059  0.64303226  0.09017801     0.07300
C1610       C  0.01648843  0.63067330  0.05605638    -0.14800
H1611       H  0.98090553  0.59843298  0.02895748     0.11300
H1612       H  0.97972180  0.59826598  0.15049914     0.11300
H1613       H  0.02588267  0.63904033  0.15091728     0.11300
H1614       H  0.02663847  0.63914067  0.02937754     0.11300
C1615       C  0.88529520  0.58396750  0.24737972    -0.14800
C1616       C  0.88480875  0.60639551  0.21710233     0.07300
C1617       C  0.88701606  0.64081562  0.22462751    -0.14800
C1618       C  0.88764670  0.65259710  0.26171899    -0.14800
C1619       C  0.88578906  0.63017160  0.29198214     0.07300
C1620       C  0.88567976  0.59572307  0.28437691    -0.14800
H1621       H  0.88366268  0.55735904  0.24255743     0.11300
H1622       H  0.88696399  0.65875757  0.20180491     0.11300
H1623       H  0.88780567  0.67922569  0.26665131     0.11300
H1624       H  0.88450654  0.57772837  0.30711961     0.11300
C1625       C  0.75242428  0.96005415  0.14002342    -0.14800
C1626       C  0.72122670  0.97678016  0.14124422     0.07300
C1627       C  0.72184278  0.51184575  0.14246723    -0.14800
C1628       C  0.75261654  0.52962980  0.14225584    -0.14800
C1629       C  0.78379698  0.51297275  0.13985493     0.07300
C1630       C  0.78318752  0.97786621  0.13887040    -0.14800
H1631       H  0.75302699  0.93313847  0.13841268     0.11300
H1632       H  0.69843211  0.52561915  0.14308595     0.11300
H1633       H  0.75191451  0.55657546  0.14252270     0.11300
H1634       H  0.80653254  0.96410999  0.13663781     0.11300
C1635       C  0.90771597  0.96024099  0.01702656    -0.14800
C1636       C  0.88219564  0.98419184  0.01618070     0.07300
C1637       C  0.85679139  0.48171148  0.98859359    -0.14800
C1638       C  0.85630313  0.95526526  0.96304899    -0.14800
C1639       C  0.88152380  0.93095892  0.96414001     0.07300
C1640       C  0.90756095  0.93405863  0.99104441    -0.14800
H1641       H  0.92785252  0.96189143  0.03752479     0.11300
H1642       H  0.83683331  0.50000766  0.98718649     0.11300
H1643       H  0.83567135  0.95334033  0.94320394     0.11300
H1644       H  0.92724956  0.91551242  0.99299577     0.11300
C1645       C  0.90720961  0.68332569  0.01526540    -0.14800
C1646       C  0.88244958  0.68064649  0.04377946     0.07300
C1647       C  0.85791623  0.70554031  0.04647118    -0.14800
C1648       C  0.85782166  0.73214416  0.02101257    -0.14800
C1649       C  0.88190666  0.73424382  0.99184076     0.07300
C1650       C  0.90675027  0.70966444  0.98937645    -0.14800
H1651       H  0.92630343  0.66433184  0.01199953     0.11300
H1652       H  0.83825736  0.70400507  0.06760800     0.11300
H1653       H  0.83840339  0.75086941  0.02377511     0.11300
H1654       H  0.92588779  0.71090115  0.96763448     0.11300
C1655       C  0.74959571  0.59940719  0.03610570    -0.14800
C1656       C  0.78160559  0.60666888  0.02103592     0.07300
C1657       C  0.78468147  0.62771151  0.98980835    -0.14800
C1658       C  0.75598662  0.64134330  0.97383294    -0.14800
C1659       C  0.72397681  0.63391998  0.98885533     0.07300
C1660       C  0.72096509  0.61308445  0.02022199    -0.14800
H1661       H  0.74666898  0.58342911  0.06052156     0.11300
H1662       H  0.80917629  0.63421085  0.97832651     0.11300
H1663       H  0.75882285  0.65730299  0.94938711     0.11300
H1664       H  0.69650515  0.60659692  0.03181292     0.11300
loop_ 
_geom_bond_atom_site_label_1 
_geom_bond_atom_site_label_2 
_geom_bond_distance 
_geom_bond_site_symmetry_2 
_ccdc_geom_bond_type 
O1          Cr19   1.993       .  S
O1            C9   1.263       .  A
O2          Cr19   2.030       .  S
O2            C3   1.273       .  A
C3            O4   1.258       .  A
C3          C784   1.482       .  S
O4          Cr20   1.964       .  S
O5          Cr20   2.047       .  S
O5            C6   1.274       .  A
C6            O7   1.252       .  A
C6          C814   1.484       .  S
O7          Cr21   1.953       .  S
O8          Cr21   1.998       .  S
O8            C9   1.265       .  A
C9          C774   1.486       .  S
O10         Cr19   2.044       .  S
O10          C18   1.275       .  A
O11         Cr19   2.003       .  S
O11          C12   1.268       .  A
C12          O13   1.274       .  A
C12         C797   1.506       .  S
O13         Cr20   2.030       .  S
O14         Cr20   1.934       .  S
O14          C15   1.249       .  A
C15          O16   1.266       .  A
C15         C824   1.453       .  S
O16         Cr21   2.010       .  S
O17         Cr21   1.946       .  S
O17          C18   1.253       .  A
C18        C1636   1.477   1_545  S
Cr19         O22   1.765       .  S
Cr20         O22   1.751       .  S
Cr21         O22   1.761       .  S
O23         Cr41   2.035       .  S
O23          C31   1.273       .  A
O24         Cr41   1.996       .  S
O24          C25   1.264       .  A
C25          O26   1.265       .  A
C25         C724   1.488       .  S
O26         Cr42   1.997       .  S
O27         Cr42   1.957       .  S
O27          C28   1.252       .  A
C28          O29   1.273       .  A
C28         C754   1.488       .  S
O29         Cr43   2.049       .  S
O30         Cr43   1.960       .  S
O30          C31   1.258       .  A
C31         C734   1.480       .  S
O32         Cr41   2.002       .  S
O32          C40   1.269       .  A
O33         Cr41   2.049       .  S
O33          C34   1.276       .  A
C34          O35   1.253       .  A
C34         C764   1.483       .  S
O35         Cr42   1.952       .  S
O36         Cr42   2.007       .  S
O36          C37   1.267       .  A
C37          O38   1.250       .  A
C37         C827   1.452       .  S
O38         Cr43   1.934       .  S
O39         Cr43   2.026       .  S
O39          C40   1.274       .  A
C40         C744   1.501       .  S
Cr41         O44   1.766       .  S
Cr42         O44   1.759       .  S
Cr43         O44   1.753       .  S
O45         Cr63   2.029       .  S
O45          C53   1.273       .  A
O46         Cr63   1.999       .  S
O46          C47   1.264       .  A
C47          O48   1.265       .  A
C47         C694   1.490       .  S
O48         Cr64   1.999       .  S
O49         Cr64   1.952       .  S
O49          C50   1.251       .  A
C50          O51   1.272       .  A
C50         C807   1.481       .  S
O51         Cr65   2.041       .  S
O52         Cr65   1.962       .  S
O52          C53   1.257       .  A
C53         C704   1.482       .  S
O54         Cr63   2.001       .  S
O54          C62   1.269       .  A
O55         Cr63   2.048       .  S
O55          C56   1.276       .  A
C56          O57   1.253       .  A
C56         C817   1.482       .  S
O57         Cr64   1.949       .  S
O58         Cr64   2.008       .  S
O58          C59   1.266       .  A
C59          O60   1.251       .  A
C59         C714   1.455       .  S
O60         Cr65   1.937       .  S
O61         Cr65   2.026       .  S
O61          C62   1.274       .  A
C62         C747   1.502       .  S
Cr63         O66   1.764       .  S
Cr64         O66   1.758       .  S
Cr65         O66   1.755       .  S
O67         Cr85   2.007       .  S
O67          C75   1.266       .  A
O68         Cr85   2.037       .  S
O68          C69   1.272       .  A
C69          O70   1.259       .  A
C69         C684   1.486       .  S
O70         Cr86   1.973       .  S
O71         Cr86   2.048       .  S
O71          C72   1.273       .  A
C72          O73   1.251       .  A
C72         C767   1.486       .  S
O73         Cr87   1.952       .  S
O74         Cr87   1.995       .  S
O74          C75   1.264       .  A
C75         C674   1.493       .  S
O76         Cr85   2.050       .  S
O76          C84   1.277       .  A
O77         Cr85   2.003       .  S
O77          C78   1.270       .  A
C78          O79   1.276       .  A
C78         C794   1.504       .  S
O79         Cr86   2.030       .  S
O80         Cr86   1.939       .  S
O80          C81   1.251       .  A
C81          O82   1.265       .  A
C81         C717   1.454       .  S
O82         Cr87   2.002       .  S
O83         Cr87   1.959       .  S
O83          C84   1.254       .  A
C84         C757   1.485       .  S
Cr85         O88   1.766       .  S
Cr86         O88   1.756       .  S
Cr87         O88   1.761       .  S
O89        Cr107   1.996       .  S
O89          C97   1.263       .  A
O90        Cr107   2.036       .  S
O90          C91   1.274       .  A
C91          O92   1.257       .  A
C91         C787   1.482       .  S
O92        Cr108   1.956       .  S
O93        Cr108   2.053       .  S
O93          C94   1.275       .  A
C94          O95   1.254       .  A
C94         C644   1.488       .  S
O95        Cr109   1.956       .  S
O96        Cr109   1.995       .  S
O96          C97   1.263       .  A
C97         C624   1.486       .  S
O98        Cr107   2.047       .  S
O98         C106   1.276       .  A
O99        Cr107   1.998       .  S
O99         C100   1.267       .  A
C100        O101   1.274       .  A
C100        C637   1.506       .  S
O101       Cr108   2.033       .  S
O102       Cr108   1.933       .  S
O102        C103   1.249       .  A
C103        O104   1.264       .  A
C103        C664   1.447       .  S
O104       Cr109   1.999       .  S
O105       Cr109   1.946       .  S
O105        C106   1.253       .  A
C106        C654   1.476       .  S
Cr107       O110   1.764       .  S
Cr108       O110   1.752       .  S
Cr109       O110   1.760       .  S
O111       Cr129   2.026       .  S
O111        C119   1.273       .  A
O112       Cr129   2.007       .  S
O112        C113   1.264       .  A
C113        O114   1.261       .  A
C113        C584   1.487       .  S
O114       Cr130   1.988       .  S
O115       Cr130   1.963       .  S
O115        C116   1.253       .  A
C116        O117   1.273       .  A
C116        C614   1.476       .  S
O117       Cr131   2.045       .  S
O118       Cr131   1.965       .  S
O118        C119   1.259       .  A
C119        C737   1.482       .  S
O120       Cr129   2.007       .  S
O120        C128   1.268       .  A
O121       Cr129   2.039       .  S
O121        C122   1.276       .  A
C122        O123   1.253       .  A
C122       C1436   1.479   1_545  S
O123       Cr130   1.942       .  S
O124       Cr130   2.002       .  S
O124        C125   1.265       .  A
C125        O126   1.250       .  A
C125        C667   1.447       .  S
O126       Cr131   1.933       .  S
O127       Cr131   2.027       .  S
O127        C128   1.273       .  A
C128        C594   1.509       .  S
Cr129       O132   1.760       .  S
Cr130       O132   1.763       .  S
Cr131       O132   1.754       .  S
O133       Cr151   2.077       .  S
O133        C141   1.295       .  A
O134       Cr151   2.000       .  S
O134        C135   1.264       .  A
C135        O136   1.260       .  A
C135        C687   1.490       .  S
O136       Cr152   1.982       .  S
O137       Cr152   2.020       .  S
O137        C138   1.260       .  A
C138        O139   1.245       .  A
C138        C607   1.476       .  S
O139       Cr153   1.964       .  S
O140       Cr153   1.939       .  S
O140        C141   1.268       .  A
C141        C564   1.488       .  S
O142       Cr151   2.015       .  S
O142        C150   1.249       .  A
O143       Cr151   2.021       .  S
O143        C144   1.272       .  A
C144        O145   1.266       .  A
C144        C634   1.509       .  S
O145       Cr152   1.996       .  S
O146       Cr152   1.986       .  S
O146        C147   1.275       .  A
C147        O148   1.272       .  A
C147        C577   1.446       .  S
O148       Cr153   1.976       .  S
O149       Cr153   1.973       .  S
O149        C150   1.237       .  A
C150        C617   1.478       .  S
Cr151       O154   1.762       .  S
Cr152       O154   1.764       .  S
Cr153       O154   1.781       .  S
O155       Cr173   2.028       .  S
O155        C163   1.270       .  A
O156       Cr173   2.003       .  S
O156        C157   1.264       .  A
C157        O158   1.267       .  A
C157        C554   1.496       .  S
O158       Cr174   2.004       .  S
O159       Cr174   1.952       .  S
O159        C160   1.251       .  A
C160        O161   1.274       .  A
C160        C657   1.481       .  S
O161       Cr175   2.048       .  S
O162       Cr175   1.959       .  S
O162        C163   1.255       .  A
C163        C707   1.480       .  S
O164       Cr173   2.001       .  S
O164        C172   1.269       .  A
O165       Cr173   2.042       .  S
O165        C166   1.277       .  A
C166        O167   1.259       .  A
C166        C647   1.484       .  S
O167       Cr174   1.968       .  S
O168       Cr174   2.022       .  S
O168        C169   1.266       .  A
C169        O170   1.250       .  A
C169        C574   1.465       .  S
O170       Cr175   1.939       .  S
O171       Cr175   2.037       .  S
O171        C172   1.277       .  A
C172        C597   1.508       .  S
Cr173       O176   1.766       .  S
Cr174       O176   1.766       .  S
Cr175       O176   1.755       .  S
O177       Cr195   1.994       .  S
O177        C185   1.263       .  A
O178       Cr195   2.031       .  S
O178        C179   1.272       .  A
C179        O180   1.258       .  A
C179        C504   1.482       .  S
O180       Cr196   1.963       .  S
O181       Cr196   2.044       .  S
O181        C182   1.274       .  A
C182        O183   1.252       .  A
C182        C524   1.484       .  S
O183       Cr197   1.954       .  S
O184       Cr197   1.995       .  S
O184        C185   1.265       .  A
C185        C777   1.486       .  S
O186       Cr195   2.045       .  S
O186        C194   1.275       .  A
O187       Cr195   1.998       .  S
O187        C188   1.268       .  A
C188        O189   1.275       .  A
C188        C514   1.501       .  S
O189       Cr196   2.029       .  S
O190       Cr196   1.935       .  S
O190        C191   1.250       .  A
C191        O192   1.265       .  A
C191        C544   1.453       .  S
O192       Cr197   2.007       .  S
O193       Cr197   1.950       .  S
O193        C194   1.253       .  A
C194        C534   1.478       .  S
Cr195       O198   1.767       .  S
Cr196       O198   1.751       .  S
Cr197       O198   1.761       .  S
O199       Cr217   2.033       .  S
O199        C207   1.273       .  A
O200       Cr217   1.995       .  S
O200        C201   1.263       .  A
C201        O202   1.265       .  A
C201        C727   1.488       .  S
O202       Cr218   1.998       .  S
O203       Cr218   1.951       .  S
O203        C204   1.251       .  A
C204        O205   1.273       .  A
C204        C494   1.482       .  S
O205       Cr219   2.044       .  S
O206       Cr219   1.960       .  S
O206        C207   1.258       .  A
C207        C464   1.482       .  S
O208       Cr217   1.998       .  S
O208        C216   1.268       .  A
O209       Cr217   2.049       .  S
O209        C210   1.276       .  A
C210        O211   1.252       .  A
C210       C1316   1.479   1_545  S
O211       Cr218   1.945       .  S
O212       Cr218   2.005       .  S
O212        C213   1.266       .  A
C213        O214   1.250       .  A
C213        C547   1.453       .  S
O214       Cr219   1.938       .  S
O215       Cr219   2.024       .  S
O215        C216   1.273       .  A
C216        C474   1.500       .  S
Cr217       O220   1.765       .  S
Cr218       O220   1.758       .  S
Cr219       O220   1.753       .  S
O221       Cr239   2.031       .  S
O221        C229   1.273       .  A
O222       Cr239   1.998       .  S
O222        C223   1.263       .  A
C223        O224   1.265       .  A
C223        C697   1.489       .  S
O224       Cr240   1.997       .  S
O225       Cr240   1.953       .  S
O225        C226   1.252       .  A
C226        O227   1.272       .  A
C226        C537   1.482       .  S
O227       Cr241   2.042       .  S
O228       Cr241   1.964       .  S
O228        C229   1.259       .  A
C229        C444   1.482       .  S
O230       Cr239   2.004       .  S
O230        C238   1.269       .  A
O231       Cr239   2.053       .  S
O231        C232   1.276       .  A
C232        O233   1.252       .  A
C232        C527   1.481       .  S
O233       Cr240   1.945       .  S
O234       Cr240   2.006       .  S
O234        C235   1.266       .  A
C235        O236   1.251       .  A
C235        C454   1.451       .  S
O236       Cr241   1.939       .  S
O237       Cr241   2.022       .  S
O237        C238   1.272       .  A
C238        C477   1.500       .  S
Cr239       O242   1.764       .  S
Cr240       O242   1.759       .  S
Cr241       O242   1.753       .  S
O243       Cr261   1.997       .  S
O243        C251   1.264       .  A
O244       Cr261   2.031       .  S
O244        C245   1.273       .  A
C245        O246   1.257       .  A
C245        C434   1.480       .  S
O246       Cr262   1.959       .  S
O247       Cr262   2.046       .  S
O247        C248   1.273       .  A
C248        O249   1.251       .  A
C248        C487   1.482       .  S
O249       Cr263   1.951       .  S
O250       Cr263   2.001       .  S
O250        C251   1.266       .  A
C251        C677   1.491       .  S
O252       Cr261   2.045       .  S
O252        C260   1.275       .  A
O253       Cr261   2.002       .  S
O253        C254   1.268       .  A
C254        O255   1.273       .  A
C254        C517   1.504       .  S
O255       Cr262   2.027       .  S
O256       Cr262   1.936       .  S
O256        C257   1.249       .  A
C257        O258   1.266       .  A
C257        C457   1.451       .  S
O258       Cr263   2.010       .  S
O259       Cr263   1.948       .  S
O259        C260   1.253       .  A
C260        C497   1.478       .  S
Cr261       O264   1.763       .  S
Cr262       O264   1.752       .  S
Cr263       O264   1.759       .  S
O265       Cr283   1.989       .  S
O265        C273   1.262       .  A
O266       Cr283   2.031       .  S
O266        C267   1.274       .  A
C267        O268   1.258       .  A
C267        C507   1.482       .  S
O268       Cr284   1.962       .  S
O269       Cr284   2.047       .  S
O269        C270   1.274       .  A
C270        O271   1.253       .  A
C270        C404   1.486       .  S
O271       Cr285   1.954       .  S
O272       Cr285   1.998       .  S
O272        C273   1.265       .  A
C273        C627   1.485       .  S
O274       Cr283   2.050       .  S
O274        C282   1.276       .  A
O275       Cr283   1.996       .  S
O275        C276   1.268       .  A
C276        O277   1.274       .  A
C276        C394   1.501       .  S
O277       Cr284   2.029       .  S
O278       Cr284   1.936       .  S
O278        C279   1.250       .  A
C279        O280   1.265       .  A
C279        C424   1.450       .  S
O280       Cr285   2.001       .  S
O281       Cr285   1.945       .  S
O281        C282   1.251       .  A
C282        C414   1.480   1_545  S
Cr283       O286   1.765       .  S
Cr284       O286   1.753       .  S
Cr285       O286   1.760       .  S
O287       Cr305   2.032       .  S
O287        C295   1.274       .  A
O288       Cr305   1.990       .  S
O288        C289   1.262       .  A
C289        O290   1.266       .  A
C289        C587   1.487       .  S
O290       Cr306   1.999       .  S
O291       Cr306   1.957       .  S
O291        C292   1.253       .  A
C292        O293   1.274       .  A
C292        C384   1.489       .  S
O293       Cr307   2.048       .  S
O294       Cr307   1.962       .  S
O294        C295   1.258       .  A
C295        C467   1.481       .  S
O296       Cr305   1.997       .  S
O296        C304   1.268       .  A
O297       Cr305   2.049       .  S
O297        C298   1.276       .  A
C298        O299   1.252       .  A
C298        C374   1.480       .  S
O299       Cr306   1.950       .  S
O300       Cr306   2.003       .  S
O300        C301   1.265       .  A
C301        O302   1.250       .  A
C301        C427   1.450       .  S
O302       Cr307   1.933       .  S
O303       Cr307   2.033       .  S
O303        C304   1.275       .  A
C304        C364   1.505       .  S
Cr305       O308   1.766       .  S
Cr306       O308   1.761       .  S
Cr307       O308   1.753       .  S
O309       Cr327   2.033       .  S
O309        C317   1.273       .  A
O310       Cr327   2.007       .  S
O310        C311   1.265       .  A
C311        O312   1.265       .  A
C311        C557   1.496       .  S
O312       Cr328   2.000       .  S
O313       Cr328   1.951       .  S
O313        C314   1.251       .  A
C314        O315   1.273       .  A
C314        C417   1.482       .  S
O315       Cr329   2.045       .  S
O316       Cr329   1.961       .  S
O316        C317   1.258       .  A
C317        C447   1.482       .  S
O318       Cr327   2.006       .  S
O318        C326   1.269       .  A
O319       Cr327   2.051       .  S
O319        C320   1.277       .  A
C320        O321   1.253       .  A
C320        C407   1.483       .  S
O321       Cr328   1.949       .  S
O322       Cr328   2.009       .  S
O322        C323   1.266       .  A
C323        O324   1.251       .  A
C323        C354   1.457       .  S
O324       Cr329   1.940       .  S
O325       Cr329   2.027       .  S
O325        C326   1.274       .  A
C326        C367   1.505       .  S
Cr327       O330   1.765       .  S
Cr328       O330   1.760       .  S
Cr329       O330   1.755       .  S
O331       Cr349   2.003       .  S
O331        C339   1.263       .  A
O332       Cr349   2.030       .  S
O332        C333   1.273       .  A
C333        O334   1.258       .  A
C333        C437   1.480       .  S
O334       Cr350   1.962       .  S
O335       Cr350   2.046       .  S
O335        C336   1.273       .  A
C336        O337   1.252       .  A
C336        C377   1.485       .  S
O337       Cr351   1.955       .  S
O338       Cr351   1.998       .  S
O338        C339   1.266       .  A
C339        C567   1.492       .  S
O340       Cr349   2.056       .  S
O340        C348   1.277       .  A
O341       Cr349   2.003       .  S
O341        C342   1.269       .  A
C342        O343   1.273       .  A
C342        C397   1.502       .  S
O343       Cr350   2.025       .  S
O344       Cr350   1.941       .  S
O344        C345   1.251       .  A
C345        O346   1.266       .  A
C345        C357   1.457       .  S
O346       Cr351   2.008       .  S
O347       Cr351   1.949       .  S
O347        C348   1.253       .  A
C348        C387   1.486       .  S
Cr349       O352   1.765       .  S
Cr350       O352   1.754       .  S
Cr351       O352   1.758       .  S
C353        C354   1.405       .  A
C353        C358   1.387       .  A
C353        H359   1.084       .  S
C354        C355   1.399       .  A
C355        C356   1.387       .  A
C355        H360   1.083       .  S
C356        C357   1.405       .  A
C356        H361   1.084       .  S
C357        C358   1.400       .  A
C358        H362   1.083       .  S
C363        C364   1.408       .  A
C363        C368   1.408       .  A
C363        H369   1.083       .  S
C364        C365   1.411       .  A
C365        C366   1.412       .  A
C365        H370   1.082       .  S
C366        C367   1.409       .  A
C366        H371   1.083       .  S
C367        C368   1.410       .  A
C368        H372   1.082       .  S
C373        C374   1.399       .  A
C373        C378   1.400       .  A
C373        H379   1.083       .  S
C374        C375   1.410       .  A
C375        C376   1.400       .  A
C375        H380   1.084       .  S
C376        C377   1.403       .  A
C376        H381   1.083       .  S
C377        C378   1.412       .  A
C378        H382   1.083       .  S
C383        C384   1.414       .  A
C383        C388   1.404       .  A
C383        H389   1.083       .  S
C384        C385   1.402       .  A
C385       C1218   1.399       .  A
C385        H390   1.083       .  S
C386        C387   1.410       .  A
C386       C1217   1.399       .  A
C386        H391   1.083       .  S
C387       C1220   1.402       .  A
C388       C1219   1.402       .  A
C388        H392   1.083       .  S
C393        C398   1.406       .  A
C393       C1226   1.407       .  A
C393        H399   1.083       .  S
C394        C395   1.411       .  A
C394       C1225   1.407   1_545  A
C395        C396   1.411       .  A
C395        H400   1.082       .  S
C396       C1229   1.409   1_545  A
C396        H401   1.083       .  S
C397        C398   1.409       .  A
C397       C1228   1.409       .  A
C398        H402   1.082       .  S
C403        C404   1.413       .  A
C403        C408   1.402       .  A
C403        H409   1.083       .  S
C404        C405   1.402       .  A
C405        C406   1.399       .  A
C405        H410   1.083       .  S
C406        C407   1.411       .  A
C406        H411   1.083       .  S
C407        C408   1.401       .  A
C408        H412   1.083       .  S
C413        C418   1.400       .  A
C413       C1246   1.399       .  A
C413       H1251   1.082       .  S
C414       C1245   1.399       .  A
C414       C1247   1.411       .  A
C415        C416   1.398       .  A
C415       C1246   1.411       .  A
C415        H420   1.083       .  S
C416        C417   1.400       .  A
C416        H421   1.082       .  S
C417        C418   1.413       .  A
C418        H422   1.084       .  S
H419       C1245   1.082       .  S
C423        C424   1.405       .  A
C423        C428   1.385       .  A
C423        H429   1.084       .  S
C424        C425   1.398       .  A
C425        C426   1.383       .  A
C425        H430   1.083       .  S
C426        C427   1.405       .  A
C426        H431   1.084       .  S
C427        C428   1.398       .  A
C428        H432   1.083       .  S
C433        C434   1.403       .  A
C433        C438   1.398       .  A
C433        H439   1.083       .  S
C434        C435   1.408       .  A
C435        C436   1.397       .  A
C435        H440   1.083       .  S
C436        C437   1.403       .  A
C436        H441   1.083       .  S
C437        C438   1.408       .  A
C438        H442   1.083       .  S
C443        C444   1.409       .  A
C443        C448   1.399       .  A
C443        H449   1.083       .  S
C444        C445   1.403       .  A
C445        C446   1.398       .  A
C445        H450   1.083       .  S
C446        C447   1.409       .  A
C446        H451   1.083       .  S
C447        C448   1.403       .  A
C448        H452   1.083       .  S
C453        C454   1.404       .  A
C453        C458   1.386       .  A
C453        H459   1.085       .  S
C454        C455   1.399   1_556  A
C455        C456   1.386       .  A
C455        H460   1.083       .  S
C456        C457   1.405       .  A
C456        H461   1.085       .  S
C457        C458   1.399   1_554  A
C458        H462   1.083       .  S
C463        C464   1.409       .  A
C463        C468   1.397       .  A
C463        H469   1.083       .  S
C464        C465   1.403       .  A
C465        C466   1.399       .  A
C465        H470   1.083       .  S
C466        C467   1.409       .  A
C466        H471   1.083       .  S
C467        C468   1.402       .  A
C468        H472   1.083       .  S
C473        C474   1.410       .  A
C473        C478   1.409       .  A
C473        H479   1.082       .  S
C474       C1307   1.407   1_545  A
C475        C476   1.407       .  A
C475       C1306   1.407       .  A
C475        H480   1.083       .  S
C476        C477   1.410       .  A
C476        H481   1.082       .  S
C477       C1310   1.407       .  A
C478       C1309   1.407   1_545  A
C478        H482   1.083       .  S
C483        C484   1.410   1_554  A
C483        C488   1.398       .  A
C483        H489   1.083       .  S
C484       C1042   1.479       .  S
C484        C485   1.399       .  A
C485        C486   1.399   1_556  A
C485       H1322   1.083       .  S
C486        C487   1.413       .  A
C486        H491   1.083       .  S
C487        C488   1.401       .  A
C488        H492   1.083       .  S
H490       C1317   1.083       .  S
C493        C494   1.401       .  A
C493        C498   1.398       .  A
C493        H499   1.083       .  S
C494        C495   1.413       .  A
C495        C496   1.399   1_556  A
C495        H500   1.083       .  S
C496        C497   1.399       .  A
C496        H501   1.083       .  S
C497        C498   1.410   1_554  A
C498        H502   1.083       .  S
C503        C504   1.408       .  A
C503        C508   1.398       .  A
C503        H509   1.083       .  S
C504        C505   1.403       .  A
C505        C506   1.399       .  A
C505        H510   1.083       .  S
C506        C507   1.409       .  A
C506        H511   1.083       .  S
C507        C508   1.403       .  A
C508        H512   1.083       .  S
C513        C514   1.408       .  A
C513        C518   1.409       .  A
C513        H519   1.083       .  S
C514        C515   1.410       .  A
C515        C516   1.409       .  A
C515        H520   1.082       .  S
C516        C517   1.409       .  A
C516        H521   1.083       .  S
C517        C518   1.411       .  A
C518        H522   1.082       .  S
C523        C524   1.414       .  A
C523        C528   1.402   1_554  A
C523        H529   1.083       .  S
C524        C525   1.400       .  A
C525       C1358   1.397       .  A
C525        H530   1.083       .  S
C526        C527   1.410   1_554  A
C526       C1357   1.397       .  A
C526        H531   1.083       .  S
C527       C1360   1.401       .  A
C528       C1359   1.401       .  A
C528       H1364   1.083       .  S
H532       C1360   1.083       .  S
C533        C534   1.409   1_556  A
C533        C538   1.398       .  A
C533        H539   1.084       .  S
C534        C535   1.400       .  A
C535        C536   1.399   1_554  A
C535        H540   1.081       .  S
C536        C537   1.412       .  A
C536        H541   1.084       .  S
C537        C538   1.402       .  A
C538        H542   1.081       .  S
C543        C544   1.405       .  A
C543        C548   1.384       .  A
C543        H549   1.085       .  S
C544        C545   1.399   1_554  A
C545        C546   1.387       .  A
C545        H550   1.083       .  S
C546        C547   1.405       .  A
C546        H551   1.085       .  S
C547        C548   1.398   1_556  A
C548        H552   1.083       .  S
C553        C554   1.410       .  A
C553        C558   1.408   1_655  A
C553        H559   1.083       .  S
C554        C555   1.406       .  A
C555        C556   1.402   1_655  A
C555        H560   1.083       .  S
C556        C557   1.408       .  A
C556        H561   1.083       .  S
C557        C558   1.409       .  A
C558        H562   1.083       .  S
C563        C564   1.407       .  A
C563        C568   1.394       .  A
C563        H569   1.084       .  S
C564        C565   1.406       .  A
C565        C566   1.412       .  A
C565        H570   1.083       .  S
C566        C567   1.413       .  A
C566        H571   1.083       .  S
C567        C568   1.403       .  A
C568        H572   1.083       .  S
C573        C574   1.408       .  A
C573        C578   1.389       .  A
C573        H579   1.084       .  S
C574        C575   1.401       .  A
C575        C576   1.393       .  A
C575        H580   1.083       .  S
C576        C577   1.404       .  A
C576        H581   1.084       .  S
C577        C578   1.395       .  A
C578        H582   1.083       .  S
C583        C584   1.407       .  A
C583        C588   1.397       .  A
C583        H589   1.083       .  S
C584        C585   1.407       .  A
C585        C586   1.405       .  A
C585        H590   1.083       .  S
C586        C587   1.409       .  A
C586        H591   1.083       .  S
C587        C588   1.405       .  A
C588        H592   1.083       .  S
C593        C594   1.411       .  A
C593        C598   1.412       .  A
C593        H599   1.081       .  S
C594       C1427   1.410   1_545  A
C595        C596   1.412       .  A
C595       C1426   1.410       .  A
C595        H600   1.083       .  S
C596        C597   1.411       .  A
C596        H601   1.082       .  S
C597       C1430   1.410       .  A
C598       C1429   1.410   1_545  A
C598        H602   1.083       .  S
C603        C604   1.413       .  A
C603        C608   1.399       .  A
C603       H1441   1.083       .  S
C604        C954   1.479       .  S
C604        C605   1.398       .  A
C605        C606   1.395       .  A
C605        H610   1.083       .  S
C606        C607   1.411       .  A
C606        H611   1.083       .  S
C607        C608   1.397       .  A
C608        H612   1.083       .  S
H609       C1435   1.083   1_545  S
C613        C614   1.405       .  A
C613        C618   1.401       .  A
C613        H619   1.085       .  S
C614        C615   1.405       .  A
C615        C616   1.399       .  A
C615        H620   1.086       .  S
C616        C617   1.404       .  A
C616        H621   1.086       .  S
C617        C618   1.406       .  A
C618        H622   1.084       .  S
C623        C624   1.407       .  A
C623        C628   1.398   1_655  A
C623        H629   1.083       .  S
C624        C625   1.406       .  A
C625        C626   1.402   1_655  A
C625        H630   1.083       .  S
C626        C627   1.408       .  A
C626        H631   1.083       .  S
C627        C628   1.405       .  A
C628        H632   1.083       .  S
C633        C634   1.412       .  A
C633        C638   1.407       .  A
C633        H639   1.082       .  S
C634        C635   1.410       .  A
C635        C636   1.413       .  A
C635        H640   1.082       .  S
C636        C637   1.411       .  A
C636        H641   1.082       .  S
C637        C638   1.408       .  A
C638        H642   1.082       .  S
C643        C644   1.405       .  A
C643       C1480   1.404   1_545  A
C643        H649   1.083       .  S
C644        C645   1.411       .  A
C645        C646   1.398       .  A
C645        H650   1.084       .  S
C646       C1479   1.401   1_545  A
C646       H1483   1.083       .  S
C647        C648   1.409       .  A
C647       C1478   1.401       .  A
C648       C1475   1.404       .  A
C648        H652   1.083       .  S
H651       C1478   1.083       .  S
C653        C654   1.409       .  A
C653        C658   1.398       .  A
C653        H659   1.084       .  S
C654        C655   1.398       .  A
C655        C656   1.398       .  A
C655        H660   1.083       .  S
C656        C657   1.413       .  A
C656        H661   1.084       .  S
C657        C658   1.402       .  A
C658        H662   1.083       .  S
C663        C664   1.404       .  A
C663        C668   1.383       .  A
C663        H669   1.085       .  S
C664        C665   1.399       .  A
C665        C666   1.383       .  A
C665        H670   1.080       .  S
C666        C667   1.404       .  A
C666        H671   1.087       .  S
C667        C668   1.398       .  A
C668        H672   1.081       .  S
C673        C674   1.409       .  A
C673        C678   1.401       .  A
C673        H679   1.083       .  S
C674        C675   1.407       .  A
C675        C676   1.405       .  A
C675        H680   1.083       .  S
C676        C677   1.409       .  A
C676        H681   1.083       .  S
C677        C678   1.406       .  A
C678        H682   1.083       .  S
C683        C684   1.407       .  A
C683        C688   1.401       .  A
C683        H689   1.084       .  S
C684        C685   1.405       .  A
C685        C686   1.403       .  A
C685        H690   1.084       .  S
C686        C687   1.409       .  A
C686        H691   1.084       .  S
C687        C688   1.406       .  A
C688        H692   1.083       .  S
C693        C694   1.409       .  A
C693        C698   1.406   1_655  A
C693        H699   1.082       .  S
C694        C695   1.406       .  A
C695        C696   1.398   1_655  A
C695        H700   1.084       .  S
C696        C697   1.406       .  A
C696        H701   1.082       .  S
C697        C698   1.408       .  A
C698        H702   1.084       .  S
C703        C704   1.402       .  A
C703        C708   1.397       .  A
C703        H709   1.083       .  S
C704        C705   1.410       .  A
C705        C706   1.399       .  A
C705        H710   1.083       .  S
C706        C707   1.402       .  A
C706        H711   1.083       .  S
C707        C708   1.408       .  A
C708        H712   1.084       .  S
C713        C714   1.399   1_554  A
C713        C718   1.387       .  A
C713        H719   1.083       .  S
C714        C715   1.405       .  A
C715        C716   1.385       .  A
C715        H720   1.084       .  S
C716        C717   1.399   1_556  A
C716        H721   1.083       .  S
C717        C718   1.405       .  A
C718        H722   1.084       .  S
C723        C724   1.407       .  A
C723        C728   1.403       .  A
C723        H729   1.083       .  S
C724        C725   1.407       .  A
C725        C726   1.399       .  A
C725        H730   1.083       .  S
C726        C727   1.406       .  A
C726        H731   1.083       .  S
C727        C728   1.408       .  A
C728        H732   1.083       .  S
C733        C734   1.407       .  A
C733        C738   1.397       .  A
C733        H739   1.084       .  S
C734        C735   1.403       .  A
C735        C736   1.400       .  A
C735        H740   1.083       .  S
C736        C737   1.409       .  A
C736        H741   1.084       .  S
C737        C738   1.403       .  A
C738        H742   1.083       .  S
C743        C744   1.408       .  A
C743        C748   1.410       .  A
C743        H749   1.083       .  S
C744        C745   1.410       .  A
C745        C746   1.408       .  A
C745        H750   1.082       .  S
C746        C747   1.408       .  A
C746        H751   1.083       .  S
C747        C748   1.411       .  A
C748        H752   1.082       .  S
C753        C754   1.412       .  A
C753        C758   1.400   1_556  A
C753        H759   1.083       .  S
C754        C755   1.404       .  A
C755       C1588   1.403       .  A
C755        H760   1.083       .  S
C756        C757   1.411   1_556  A
C756       C1587   1.403       .  A
C756        H761   1.083       .  S
C757       C1590   1.400       .  A
C758       C1589   1.400       .  A
C758        H762   1.083       .  S
C763        C764   1.400       .  A
C763        C768   1.400   1_556  A
C763        H769   1.083       .  S
C764        C765   1.411   1_556  A
C765        C766   1.401       .  A
C765        H770   1.083       .  S
C766        C767   1.402       .  A
C766        H771   1.083       .  S
C767        C768   1.413       .  A
C768        H772   1.083       .  S
C773        C774   1.406       .  A
C773        C778   1.398   1_655  A
C773        H779   1.083       .  S
C774        C775   1.407       .  A
C775        C776   1.403   1_655  A
C775        H780   1.083       .  S
C776        C777   1.407       .  A
C776        H781   1.083       .  S
C777        C778   1.406       .  A
C778        H782   1.083       .  S
C783        C784   1.402       .  A
C783        C788   1.397       .  A
C783        H789   1.083       .  S
C784        C785   1.409       .  A
C785        C786   1.400       .  A
C785        H790   1.084       .  S
C786        C787   1.403       .  A
C786        H791   1.083       .  S
C787        C788   1.409       .  A
C788        H792   1.084       .  S
C793        C794   1.411       .  A
C793        C798   1.411       .  A
C793        H799   1.082       .  S
C794       C1627   1.408       .  A
C795        C796   1.410       .  A
C795       C1626   1.408   1_545  A
C795        H800   1.083       .  S
C796        C797   1.411       .  A
C796        H801   1.082       .  S
C797       C1630   1.409   1_545  A
C798       C1629   1.409       .  A
C798        H802   1.083       .  S
C803        C804   1.399       .  A
C803        C808   1.399   1_554  A
C803        H809   1.083       .  S
C804        C850   1.477       .  S
C804       C1637   1.409   1_554  A
C805       C1636   1.409   1_556  A
C805       C1638   1.397       .  A
C805        H810   1.083   1_565  S
C806        C807   1.401       .  A
C806       C1637   1.397       .  A
C806        H811   1.083       .  S
C807        C808   1.412       .  A
C808        H812   1.084       .  S
C813        C814   1.413       .  A
C813        C818   1.401   1_554  A
C813        H819   1.083       .  S
C814        C815   1.401       .  A
C815        C816   1.399       .  A
C815        H820   1.083       .  S
C816        C817   1.410   1_554  A
C816        H821   1.083       .  S
C817        C818   1.400       .  A
C818        H822   1.083       .  S
C823        C824   1.405       .  A
C823        C828   1.384       .  A
C823        H829   1.084       .  S
C824        C825   1.398   1_554  A
C825        C826   1.387       .  A
C825        H830   1.083       .  S
C826        C827   1.406       .  A
C826        H831   1.084       .  S
C827        C828   1.397   1_556  A
C828        H832   1.083       .  S
O833       Cr851   1.993       .  S
O833        C841   1.263       .  A
O834       Cr851   2.030       .  S
O834        C835   1.273       .  A
C835        O836   1.258       .  A
C835       C1616   1.482       .  S
O836       Cr852   1.964       .  S
O837       Cr852   2.047       .  S
O837        C838   1.274       .  A
C838        O839   1.252       .  A
C838       C1646   1.484       .  S
O839       Cr853   1.953       .  S
O840       Cr853   1.998       .  S
O840        C841   1.265       .  A
C841       C1606   1.486       .  S
O842       Cr851   2.044       .  S
O842        C850   1.275       .  A
O843       Cr851   2.003       .  S
O843        C844   1.268       .  A
C844        O845   1.274       .  A
C844       C1629   1.506       .  S
O845       Cr852   2.030       .  S
O846       Cr852   1.934       .  S
O846        C847   1.249       .  A
C847        O848   1.266       .  A
C847       C1656   1.453       .  S
O848       Cr853   2.010       .  S
O849       Cr853   1.946       .  S
O849        C850   1.253       .  A
Cr851       O854   1.765       .  S
Cr852       O854   1.751       .  S
Cr853       O854   1.761       .  S
O855       Cr873   2.035       .  S
O855        C863   1.273       .  A
O856       Cr873   1.996       .  S
O856        C857   1.264       .  A
C857        O858   1.265       .  A
C857       C1556   1.488       .  S
O858       Cr874   1.997       .  S
O859       Cr874   1.957       .  S
O859        C860   1.252       .  A
C860        O861   1.273       .  A
C860       C1586   1.488       .  S
O861       Cr875   2.049       .  S
O862       Cr875   1.960       .  S
O862        C863   1.258       .  A
C863       C1566   1.480       .  S
O864       Cr873   2.002       .  S
O864        C872   1.269       .  A
O865       Cr873   2.049       .  S
O865        C866   1.276       .  A
C866        O867   1.253       .  A
C866       C1596   1.483       .  S
O867       Cr874   1.952       .  S
O868       Cr874   2.007       .  S
O868        C869   1.267       .  A
C869        O870   1.250       .  A
C869       C1659   1.452       .  S
O870       Cr875   1.934       .  S
O871       Cr875   2.026       .  S
O871        C872   1.274       .  A
C872       C1576   1.501       .  S
Cr873       O876   1.766       .  S
Cr874       O876   1.759       .  S
Cr875       O876   1.753       .  S
O877       Cr895   2.029       .  S
O877        C885   1.273       .  A
O878       Cr895   1.999       .  S
O878        C879   1.264       .  A
C879        O880   1.265       .  A
C879       C1526   1.490       .  S
O880       Cr896   1.999       .  S
O881       Cr896   1.952       .  S
O881        C882   1.251       .  A
C882        O883   1.272       .  A
C882       C1639   1.481       .  S
O883       Cr897   2.041       .  S
O884       Cr897   1.962       .  S
O884        C885   1.257       .  A
C885       C1536   1.482       .  S
O886       Cr895   2.001       .  S
O886        C894   1.269       .  A
O887       Cr895   2.048       .  S
O887        C888   1.276       .  A
C888        O889   1.253       .  A
C888       C1649   1.482       .  S
O889       Cr896   1.949       .  S
O890       Cr896   2.008       .  S
O890        C891   1.266       .  A
C891        O892   1.251       .  A
C891       C1546   1.455       .  S
O892       Cr897   1.937       .  S
O893       Cr897   2.026       .  S
O893        C894   1.274       .  A
C894       C1579   1.502       .  S
Cr895       O898   1.764       .  S
Cr896       O898   1.758       .  S
Cr897       O898   1.755       .  S
O899       Cr917   2.007       .  S
O899        C907   1.266       .  A
O900       Cr917   2.037       .  S
O900        C901   1.272       .  A
C901        O902   1.259       .  A
C901       C1516   1.486       .  S
O902       Cr918   1.973       .  S
O903       Cr918   2.048       .  S
O903        C904   1.273       .  A
C904        O905   1.251       .  A
C904       C1599   1.486       .  S
O905       Cr919   1.952       .  S
O906       Cr919   1.995       .  S
O906        C907   1.264       .  A
C907       C1506   1.493       .  S
O908       Cr917   2.050       .  S
O908        C916   1.277       .  A
O909       Cr917   2.003       .  S
O909        C910   1.270       .  A
C910        O911   1.276       .  A
C910       C1626   1.504       .  S
O911       Cr918   2.030       .  S
O912       Cr918   1.939       .  S
O912        C913   1.251       .  A
C913        O914   1.265       .  A
C913       C1549   1.454       .  S
O914       Cr919   2.002       .  S
O915       Cr919   1.959       .  S
O915        C916   1.254       .  A
C916       C1589   1.485   1_565  S
Cr917       O920   1.766       .  S
Cr918       O920   1.756       .  S
Cr919       O920   1.761       .  S
O921       Cr939   1.996       .  S
O921        C929   1.263       .  A
O922       Cr939   2.036       .  S
O922        C923   1.274       .  A
C923        O924   1.257       .  A
C923       C1619   1.482       .  S
O924       Cr940   1.956       .  S
O925       Cr940   2.053       .  S
O925        C926   1.275       .  A
C926        O927   1.254       .  A
C926       C1476   1.488       .  S
O927       Cr941   1.956       .  S
O928       Cr941   1.995       .  S
O928        C929   1.263       .  A
C929       C1456   1.486       .  S
O930       Cr939   2.047       .  S
O930        C938   1.276       .  A
O931       Cr939   1.998       .  S
O931        C932   1.267       .  A
C932        O933   1.274       .  A
C932       C1469   1.506       .  S
O933       Cr940   2.033       .  S
O934       Cr940   1.933       .  S
O934        C935   1.249       .  A
C935        O936   1.264       .  A
C935       C1496   1.447       .  S
O936       Cr941   1.999       .  S
O937       Cr941   1.946       .  S
O937        C938   1.253       .  A
C938       C1486   1.476       .  S
Cr939       O942   1.764       .  S
Cr940       O942   1.752       .  S
Cr941       O942   1.760       .  S
O943       Cr961   2.026       .  S
O943        C951   1.273       .  A
O944       Cr961   2.007       .  S
O944        C945   1.264       .  A
C945        O946   1.261       .  A
C945       C1416   1.487       .  S
O946       Cr962   1.988       .  S
O947       Cr962   1.963       .  S
O947        C948   1.253       .  A
C948        O949   1.273       .  A
C948       C1446   1.476       .  S
O949       Cr963   2.045       .  S
O950       Cr963   1.965       .  S
O950        C951   1.259       .  A
C951       C1569   1.482       .  S
O952       Cr961   2.007       .  S
O952        C960   1.268       .  A
O953       Cr961   2.039       .  S
O953        C954   1.276       .  A
C954        O955   1.253       .  A
O955       Cr962   1.942       .  S
O956       Cr962   2.002       .  S
O956        C957   1.265       .  A
C957        O958   1.250       .  A
C957       C1499   1.447       .  S
O958       Cr963   1.933       .  S
O959       Cr963   2.027       .  S
O959        C960   1.273       .  A
C960       C1426   1.509       .  S
Cr961       O964   1.760       .  S
Cr962       O964   1.763       .  S
Cr963       O964   1.754       .  S
O965       Cr983   2.077       .  S
O965        C973   1.295       .  A
O966       Cr983   2.000       .  S
O966        C967   1.264       .  A
C967        O968   1.260       .  A
C967       C1519   1.490       .  S
O968       Cr984   1.982       .  S
O969       Cr984   2.020       .  S
O969        C970   1.260       .  A
C970        O971   1.245       .  A
C970       C1439   1.476       .  S
O971       Cr985   1.964       .  S
O972       Cr985   1.939       .  S
O972        C973   1.268       .  A
C973       C1396   1.488       .  S
O974       Cr983   2.015       .  S
O974        C982   1.249       .  A
O975       Cr983   2.021       .  S
O975        C976   1.272       .  A
C976        O977   1.266       .  A
C976       C1466   1.509       .  S
O977       Cr984   1.996       .  S
O978       Cr984   1.986       .  S
O978        C979   1.275       .  A
C979        O980   1.272       .  A
C979       C1409   1.446       .  S
O980       Cr985   1.976       .  S
O981       Cr985   1.973       .  S
O981        C982   1.237       .  A
C982       C1449   1.478       .  S
Cr983       O986   1.762       .  S
Cr984       O986   1.764       .  S
Cr985       O986   1.781       .  S
O987      Cr1005   2.028       .  S
O987        C995   1.270       .  A
O988      Cr1005   2.003       .  S
O988        C989   1.264       .  A
C989        O990   1.267       .  A
C989       C1386   1.496       .  S
O990      Cr1006   2.004       .  S
O991      Cr1006   1.952       .  S
O991        C992   1.251       .  A
C992        O993   1.274       .  A
C992       C1489   1.481       .  S
O993      Cr1007   2.048       .  S
O994      Cr1007   1.959       .  S
O994        C995   1.255       .  A
C995       C1539   1.480       .  S
O996      Cr1005   2.001       .  S
O996       C1004   1.269       .  A
O997      Cr1005   2.042       .  S
O997        C998   1.277       .  A
C998        O999   1.259       .  A
C998       C1479   1.484       .  S
O999      Cr1006   1.968       .  S
O1000     Cr1006   2.022       .  S
O1000      C1001   1.266       .  A
C1001      O1002   1.250       .  A
C1001      C1406   1.465       .  S
O1002     Cr1007   1.939       .  S
O1003     Cr1007   2.037       .  S
O1003      C1004   1.277       .  A
C1004      C1429   1.508       .  S
Cr1005     O1008   1.766       .  S
Cr1006     O1008   1.766       .  S
Cr1007     O1008   1.755       .  S
O1009     Cr1027   1.994       .  S
O1009      C1017   1.263       .  A
O1010     Cr1027   2.031       .  S
O1010      C1011   1.272       .  A
C1011      O1012   1.258       .  A
C1011      C1336   1.482       .  S
O1012     Cr1028   1.963       .  S
O1013     Cr1028   2.044       .  S
O1013      C1014   1.274       .  A
C1014      O1015   1.252       .  A
C1014      C1356   1.484       .  S
O1015     Cr1029   1.954       .  S
O1016     Cr1029   1.995       .  S
O1016      C1017   1.265       .  A
C1017      C1609   1.486       .  S
O1018     Cr1027   2.045       .  S
O1018      C1026   1.275       .  A
O1019     Cr1027   1.997       .  S
O1019      C1020   1.268       .  A
C1020      O1021   1.275       .  A
C1020      C1346   1.501       .  S
O1021     Cr1028   2.029       .  S
O1022     Cr1028   1.935       .  S
O1022      C1023   1.250       .  A
C1023      O1024   1.265       .  A
C1023      C1376   1.453       .  S
O1024     Cr1029   2.007       .  S
O1025     Cr1029   1.950       .  S
O1025      C1026   1.253       .  A
C1026      C1366   1.478       .  S
Cr1027     O1030   1.767       .  S
Cr1028     O1030   1.751       .  S
Cr1029     O1030   1.761       .  S
O1031     Cr1049   2.033       .  S
O1031      C1039   1.273       .  A
O1032     Cr1049   1.995       .  S
O1032      C1033   1.263       .  A
C1033      O1034   1.265       .  A
C1033      C1559   1.488       .  S
O1034     Cr1050   1.998       .  S
O1035     Cr1050   1.951       .  S
O1035      C1036   1.251       .  A
C1036      O1037   1.273       .  A
C1036      C1326   1.482       .  S
O1037     Cr1051   2.044       .  S
O1038     Cr1051   1.960       .  S
O1038      C1039   1.258       .  A
C1039      C1296   1.482       .  S
O1040     Cr1049   1.998       .  S
O1040      C1048   1.268       .  A
O1041     Cr1049   2.049       .  S
O1041      C1042   1.276       .  A
C1042      O1043   1.252       .  A
O1043     Cr1050   1.945       .  S
O1044     Cr1050   2.005       .  S
O1044      C1045   1.266       .  A
C1045      O1046   1.250       .  A
C1045      C1379   1.453       .  S
O1046     Cr1051   1.938       .  S
O1047     Cr1051   2.024       .  S
O1047      C1048   1.273       .  A
C1048      C1306   1.500       .  S
Cr1049     O1052   1.765       .  S
Cr1050     O1052   1.758       .  S
Cr1051     O1052   1.753       .  S
O1053     Cr1071   2.031       .  S
O1053      C1061   1.273       .  A
O1054     Cr1071   1.998       .  S
O1054      C1055   1.263       .  A
C1055      O1056   1.265       .  A
C1055      C1529   1.489       .  S
O1056     Cr1072   1.997       .  S
O1057     Cr1072   1.953       .  S
O1057      C1058   1.252       .  A
C1058      O1059   1.272       .  A
C1058      C1369   1.482       .  S
O1059     Cr1073   2.042       .  S
O1060     Cr1073   1.964       .  S
O1060      C1061   1.259       .  A
C1061      C1276   1.482       .  S
O1062     Cr1071   2.004       .  S
O1062      C1070   1.269       .  A
O1063     Cr1071   2.053       .  S
O1063      C1064   1.276       .  A
C1064      O1065   1.252       .  A
C1064      C1359   1.481   1_565  S
O1065     Cr1072   1.945       .  S
O1066     Cr1072   2.006       .  S
O1066      C1067   1.266       .  A
C1067      O1068   1.251       .  A
C1067      C1286   1.451       .  S
O1068     Cr1073   1.939       .  S
O1069     Cr1073   2.022       .  S
O1069      C1070   1.272       .  A
C1070      C1309   1.500       .  S
Cr1071     O1074   1.764       .  S
Cr1072     O1074   1.759       .  S
Cr1073     O1074   1.753       .  S
O1075     Cr1093   1.997       .  S
O1075      C1083   1.264       .  A
O1076     Cr1093   2.031       .  S
O1076      C1077   1.273       .  A
C1077      O1078   1.257       .  A
C1077      C1266   1.480       .  S
O1078     Cr1094   1.959       .  S
O1079     Cr1094   2.046       .  S
O1079      C1080   1.273       .  A
C1080      O1081   1.251       .  A
C1080      C1319   1.482       .  S
O1081     Cr1095   1.951       .  S
O1082     Cr1095   2.001       .  S
O1082      C1083   1.266       .  A
C1083      C1509   1.491       .  S
O1084     Cr1093   2.045       .  S
O1084      C1092   1.275       .  A
O1085     Cr1093   2.002       .  S
O1085      C1086   1.268       .  A
C1086      O1087   1.273       .  A
C1086      C1349   1.504       .  S
O1087     Cr1094   2.027       .  S
O1088     Cr1094   1.936       .  S
O1088      C1089   1.249       .  A
C1089      O1090   1.266       .  A
C1089      C1289   1.451       .  S
O1090     Cr1095   2.010       .  S
O1091     Cr1095   1.948       .  S
O1091      C1092   1.253       .  A
C1092      C1329   1.478       .  S
Cr1093     O1096   1.763       .  S
Cr1094     O1096   1.752       .  S
Cr1095     O1096   1.759       .  S
O1097     Cr1115   1.989       .  S
O1097      C1105   1.262       .  A
O1098     Cr1115   2.031       .  S
O1098      C1099   1.274       .  A
C1099      O1100   1.258       .  A
C1099      C1339   1.483       .  S
O1100     Cr1116   1.962       .  S
O1101     Cr1116   2.047       .  S
O1101      C1102   1.274       .  A
C1102      O1103   1.253       .  A
C1102      C1236   1.486       .  S
O1103     Cr1117   1.954       .  S
O1104     Cr1117   1.998       .  S
O1104      C1105   1.265       .  A
C1105      C1459   1.485       .  S
O1106     Cr1115   2.050       .  S
O1106      C1114   1.276       .  A
O1107     Cr1115   1.996       .  S
O1107      C1108   1.268       .  A
C1108      O1109   1.274       .  A
C1108      C1226   1.501       .  S
O1109     Cr1116   2.029       .  S
O1110     Cr1116   1.936       .  S
O1110      C1111   1.250       .  A
C1111      O1112   1.265       .  A
C1111      C1256   1.450       .  S
O1112     Cr1117   2.001       .  S
O1113     Cr1117   1.945       .  S
O1113      C1114   1.251       .  A
C1114      C1246   1.480       .  S
Cr1115     O1118   1.765       .  S
Cr1116     O1118   1.753       .  S
Cr1117     O1118   1.760       .  S
O1119     Cr1137   2.032       .  S
O1119      C1127   1.274       .  A
O1120     Cr1137   1.990       .  S
O1120      C1121   1.262       .  A
C1121      O1122   1.266       .  A
C1121      C1419   1.487       .  S
O1122     Cr1138   1.999       .  S
O1123     Cr1138   1.957       .  S
O1123      C1124   1.253       .  A
C1124      O1125   1.274       .  A
C1124      C1216   1.489       .  S
O1125     Cr1139   2.048       .  S
O1126     Cr1139   1.962       .  S
O1126      C1127   1.258       .  A
C1127      C1299   1.481       .  S
O1128     Cr1137   1.997       .  S
O1128      C1136   1.268       .  A
O1129     Cr1137   2.049       .  S
O1129      C1130   1.276       .  A
C1130      O1131   1.252       .  A
C1130      C1206   1.480       .  S
O1131     Cr1138   1.950       .  S
O1132     Cr1138   2.003       .  S
O1132      C1133   1.265       .  A
C1133      O1134   1.250       .  A
C1133      C1259   1.450       .  S
O1134     Cr1139   1.933       .  S
O1135     Cr1139   2.033       .  S
O1135      C1136   1.275       .  A
C1136      C1196   1.505       .  S
Cr1137     O1140   1.766       .  S
Cr1138     O1140   1.761       .  S
Cr1139     O1140   1.753       .  S
O1141     Cr1159   2.033       .  S
O1141      C1149   1.273       .  A
O1142     Cr1159   2.007       .  S
O1142      C1143   1.265       .  A
C1143      O1144   1.265       .  A
C1143      C1389   1.496       .  S
O1144     Cr1160   2.000       .  S
O1145     Cr1160   1.951       .  S
O1145      C1146   1.251       .  A
C1146      O1147   1.273       .  A
C1146      C1249   1.482       .  S
O1147     Cr1161   2.045       .  S
O1148     Cr1161   1.961       .  S
O1148      C1149   1.258       .  A
C1149      C1279   1.482       .  S
O1150     Cr1159   2.006       .  S
O1150      C1158   1.269       .  A
O1151     Cr1159   2.051       .  S
O1151      C1152   1.277       .  A
C1152      O1153   1.253       .  A
C1152      C1239   1.483       .  S
O1153     Cr1160   1.949       .  S
O1154     Cr1160   2.009       .  S
O1154      C1155   1.266       .  A
C1155      O1156   1.251       .  A
C1155      C1186   1.457       .  S
O1156     Cr1161   1.940       .  S
O1157     Cr1161   2.027       .  S
O1157      C1158   1.274       .  A
C1158      C1199   1.505       .  S
Cr1159     O1162   1.765       .  S
Cr1160     O1162   1.760       .  S
Cr1161     O1162   1.755       .  S
O1163     Cr1181   2.003       .  S
O1163      C1171   1.263       .  A
O1164     Cr1181   2.030       .  S
O1164      C1165   1.273       .  A
C1165      O1166   1.258       .  A
C1165      C1269   1.480       .  S
O1166     Cr1182   1.962       .  S
O1167     Cr1182   2.046       .  S
O1167      C1168   1.273       .  A
C1168      O1169   1.252       .  A
C1168      C1209   1.485       .  S
O1169     Cr1183   1.955       .  S
O1170     Cr1183   1.998       .  S
O1170      C1171   1.266       .  A
C1171      C1399   1.492       .  S
O1172     Cr1181   2.056       .  S
O1172      C1180   1.277       .  A
O1173     Cr1181   2.003       .  S
O1173      C1174   1.269       .  A
C1174      O1175   1.273       .  A
C1174      C1229   1.502       .  S
O1175     Cr1182   2.025       .  S
O1176     Cr1182   1.941       .  S
O1176      C1177   1.251       .  A
C1177      O1178   1.266       .  A
C1177      C1189   1.457       .  S
O1178     Cr1183   2.008       .  S
O1179     Cr1183   1.949       .  S
O1179      C1180   1.253       .  A
C1180      C1219   1.486   1_565  S
Cr1181     O1184   1.765       .  S
Cr1182     O1184   1.754       .  S
Cr1183     O1184   1.758       .  S
C1185      C1186   1.405       .  A
C1185      C1190   1.387       .  A
C1185      H1191   1.084       .  S
C1186      C1187   1.399       .  A
C1187      C1188   1.387       .  A
C1187      H1192   1.083       .  S
C1188      C1189   1.405       .  A
C1188      H1193   1.084       .  S
C1189      C1190   1.400       .  A
C1190      H1194   1.083       .  S
C1195      C1196   1.408       .  A
C1195      C1200   1.408       .  A
C1195      H1201   1.083       .  S
C1196      C1197   1.411       .  A
C1197      C1198   1.412       .  A
C1197      H1202   1.082       .  S
C1198      C1199   1.409       .  A
C1198      H1203   1.083       .  S
C1199      C1200   1.410       .  A
C1200      H1204   1.082       .  S
C1205      C1206   1.399       .  A
C1205      C1210   1.400       .  A
C1205      H1211   1.082       .  S
C1206      C1207   1.410       .  A
C1207      C1208   1.400       .  A
C1207      H1212   1.084       .  S
C1208      C1209   1.403       .  A
C1208      H1213   1.083       .  S
C1209      C1210   1.412       .  A
C1210      H1214   1.083       .  S
C1215      C1216   1.414       .  A
C1215      C1220   1.404       .  A
C1215      H1221   1.083       .  S
C1216      C1217   1.402       .  A
C1217      H1222   1.083       .  S
C1218      C1219   1.410       .  A
C1218      H1223   1.083   1_545  S
C1220      H1224   1.083       .  S
C1225      C1230   1.406       .  A
C1225      H1231   1.083       .  S
C1226      C1227   1.411       .  A
C1227      C1228   1.411       .  A
C1227      H1232   1.082       .  S
C1228      H1233   1.083       .  S
C1229      C1230   1.409       .  A
C1230      H1234   1.082       .  S
C1235      C1236   1.413       .  A
C1235      C1240   1.402       .  A
C1235      H1241   1.083       .  S
C1236      C1237   1.402       .  A
C1237      C1238   1.399       .  A
C1237      H1242   1.083       .  S
C1238      C1239   1.411       .  A
C1238      H1243   1.083       .  S
C1239      C1240   1.401       .  A
C1240      H1244   1.083       .  S
C1245      C1250   1.400       .  A
C1247      C1248   1.398       .  A
C1247      H1252   1.083       .  S
C1248      C1249   1.400       .  A
C1248      H1253   1.082       .  S
C1249      C1250   1.413       .  A
C1250      H1254   1.084       .  S
C1255      C1256   1.405       .  A
C1255      C1260   1.385       .  A
C1255      H1261   1.084       .  S
C1256      C1257   1.398       .  A
C1257      C1258   1.383       .  A
C1257      H1262   1.083       .  S
C1258      C1259   1.405       .  A
C1258      H1263   1.084       .  S
C1259      C1260   1.398       .  A
C1260      H1264   1.083       .  S
C1265      C1266   1.403       .  A
C1265      C1270   1.398       .  A
C1265      H1271   1.083       .  S
C1266      C1267   1.408       .  A
C1267      C1268   1.397       .  A
C1267      H1272   1.083       .  S
C1268      C1269   1.403       .  A
C1268      H1273   1.083       .  S
C1269      C1270   1.408       .  A
C1270      H1274   1.083       .  S
C1275      C1276   1.409       .  A
C1275      C1280   1.399       .  A
C1275      H1281   1.083       .  S
C1276      C1277   1.403       .  A
C1277      C1278   1.398       .  A
C1277      H1282   1.083       .  S
C1278      C1279   1.409       .  A
C1278      H1283   1.083       .  S
C1279      C1280   1.403       .  A
C1280      H1284   1.083       .  S
C1285      C1286   1.404       .  A
C1285      C1290   1.386       .  A
C1285      H1291   1.085       .  S
C1286      C1287   1.399   1_556  A
C1287      C1288   1.385       .  A
C1287      H1292   1.083       .  S
C1288      C1289   1.405       .  A
C1288      H1293   1.085       .  S
C1289      C1290   1.399   1_554  A
C1290      H1294   1.083       .  S
C1295      C1296   1.409       .  A
C1295      C1300   1.397       .  A
C1295      H1301   1.083       .  S
C1296      C1297   1.403       .  A
C1297      C1298   1.399       .  A
C1297      H1302   1.083       .  S
C1298      C1299   1.409       .  A
C1298      H1303   1.083       .  S
C1299      C1300   1.402       .  A
C1300      H1304   1.083       .  S
C1305      C1306   1.410       .  A
C1305      C1310   1.409       .  A
C1305      H1311   1.082       .  S
C1307      C1308   1.407       .  A
C1307      H1312   1.083       .  S
C1308      C1309   1.410       .  A
C1308      H1313   1.082       .  S
C1310      H1314   1.082       .  S
C1315      C1316   1.410   1_554  A
C1315      C1320   1.398       .  A
C1315      H1321   1.083       .  S
C1316      C1317   1.399       .  A
C1317      C1318   1.399   1_556  A
C1318      C1319   1.413       .  A
C1318      H1323   1.083       .  S
C1319      C1320   1.401       .  A
C1320      H1324   1.083       .  S
C1325      C1326   1.401       .  A
C1325      C1330   1.398       .  A
C1325      H1331   1.083       .  S
C1326      C1327   1.413       .  A
C1327      C1328   1.399   1_556  A
C1327      H1332   1.083       .  S
C1328      C1329   1.399       .  A
C1328      H1333   1.083       .  S
C1329      C1330   1.410   1_554  A
C1330      H1334   1.083       .  S
C1335      C1336   1.408       .  A
C1335      C1340   1.398       .  A
C1335      H1341   1.083       .  S
C1336      C1337   1.403       .  A
C1337      C1338   1.399       .  A
C1337      H1342   1.083       .  S
C1338      C1339   1.409       .  A
C1338      H1343   1.083       .  S
C1339      C1340   1.403       .  A
C1340      H1344   1.083       .  S
C1345      C1346   1.408       .  A
C1345      C1350   1.409       .  A
C1345      H1351   1.083       .  S
C1346      C1347   1.410       .  A
C1347      C1348   1.409       .  A
C1347      H1352   1.082       .  S
C1348      C1349   1.409       .  A
C1348      H1353   1.083       .  S
C1349      C1350   1.411       .  A
C1350      H1354   1.082       .  S
C1355      C1356   1.414       .  A
C1355      C1360   1.402   1_554  A
C1355      H1361   1.083       .  S
C1356      C1357   1.400       .  A
C1357      H1362   1.083       .  S
C1358      C1359   1.410   1_554  A
C1358      H1363   1.083   1_545  S
C1365      C1366   1.409   1_556  A
C1365      C1370   1.398       .  A
C1365      H1371   1.084       .  S
C1366      C1367   1.400       .  A
C1367      C1368   1.399   1_554  A
C1367      H1372   1.081       .  S
C1368      C1369   1.412       .  A
C1368      H1373   1.084       .  S
C1369      C1370   1.402       .  A
C1370      H1374   1.081       .  S
C1375      C1376   1.405       .  A
C1375      C1380   1.384       .  A
C1375      H1381   1.084       .  S
C1376      C1377   1.399   1_554  A
C1377      C1378   1.387       .  A
C1377      H1382   1.083       .  S
C1378      C1379   1.405       .  A
C1378      H1383   1.085       .  S
C1379      C1380   1.398   1_556  A
C1380      H1384   1.083       .  S
C1385      C1386   1.410       .  A
C1385      C1390   1.408   1_655  A
C1385      H1391   1.083       .  S
C1386      C1387   1.406       .  A
C1387      C1388   1.402   1_655  A
C1387      H1392   1.083       .  S
C1388      C1389   1.408       .  A
C1388      H1393   1.083       .  S
C1389      C1390   1.409       .  A
C1390      H1394   1.083       .  S
C1395      C1396   1.407       .  A
C1395      C1400   1.394       .  A
C1395      H1401   1.084       .  S
C1396      C1397   1.406       .  A
C1397      C1398   1.412       .  A
C1397      H1402   1.083       .  S
C1398      C1399   1.413       .  A
C1398      H1403   1.083       .  S
C1399      C1400   1.403       .  A
C1400      H1404   1.083       .  S
C1405      C1406   1.408       .  A
C1405      C1410   1.389       .  A
C1405      H1411   1.084       .  S
C1406      C1407   1.401       .  A
C1407      C1408   1.393       .  A
C1407      H1412   1.083       .  S
C1408      C1409   1.404       .  A
C1408      H1413   1.084       .  S
C1409      C1410   1.395       .  A
C1410      H1414   1.083       .  S
C1415      C1416   1.407       .  A
C1415      C1420   1.397       .  A
C1415      H1421   1.083       .  S
C1416      C1417   1.407       .  A
C1417      C1418   1.405       .  A
C1417      H1422   1.083       .  S
C1418      C1419   1.409       .  A
C1418      H1423   1.083       .  S
C1419      C1420   1.405       .  A
C1420      H1424   1.083       .  S
C1425      C1426   1.411       .  A
C1425      C1430   1.412       .  A
C1425      H1431   1.081       .  S
C1427      C1428   1.412       .  A
C1427      H1432   1.083       .  S
C1428      C1429   1.411       .  A
C1428      H1433   1.082       .  S
C1430      H1434   1.083       .  S
C1435      C1436   1.413       .  A
C1435      C1440   1.399       .  A
C1436      C1437   1.398       .  A
C1437      C1438   1.395       .  A
C1437      H1442   1.083       .  S
C1438      C1439   1.411       .  A
C1438      H1443   1.083       .  S
C1439      C1440   1.398       .  A
C1440      H1444   1.083       .  S
C1445      C1446   1.405       .  A
C1445      C1450   1.402       .  A
C1445      H1451   1.085       .  S
C1446      C1447   1.405       .  A
C1447      C1448   1.399       .  A
C1447      H1452   1.086       .  S
C1448      C1449   1.404       .  A
C1448      H1453   1.086       .  S
C1449      C1450   1.406       .  A
C1450      H1454   1.084       .  S
C1455      C1456   1.407       .  A
C1455      C1460   1.398   1_655  A
C1455      H1461   1.083       .  S
C1456      C1457   1.406       .  A
C1457      C1458   1.402   1_655  A
C1457      H1462   1.083       .  S
C1458      C1459   1.408       .  A
C1458      H1463   1.083       .  S
C1459      C1460   1.405       .  A
C1460      H1464   1.083       .  S
C1465      C1466   1.412       .  A
C1465      C1470   1.407       .  A
C1465      H1471   1.082       .  S
C1466      C1467   1.410       .  A
C1467      C1468   1.413       .  A
C1467      H1472   1.082       .  S
C1468      C1469   1.411       .  A
C1468      H1473   1.082       .  S
C1469      C1470   1.408       .  A
C1470      H1474   1.082       .  S
C1475      C1476   1.405       .  A
C1475      H1481   1.083       .  S
C1476      C1477   1.411       .  A
C1477      C1478   1.398       .  A
C1477      H1482   1.084       .  S
C1479      C1480   1.409       .  A
C1480      H1484   1.083       .  S
C1485      C1486   1.409       .  A
C1485      C1490   1.398       .  A
C1485      H1491   1.084       .  S
C1486      C1487   1.398       .  A
C1487      C1488   1.398       .  A
C1487      H1492   1.083       .  S
C1488      C1489   1.413       .  A
C1488      H1493   1.084       .  S
C1489      C1490   1.402       .  A
C1490      H1494   1.083       .  S
C1495      C1496   1.404       .  A
C1495      C1500   1.383       .  A
C1495      H1501   1.085       .  S
C1496      C1497   1.399       .  A
C1497      C1498   1.383       .  A
C1497      H1502   1.080       .  S
C1498      C1499   1.404       .  A
C1498      H1503   1.087       .  S
C1499      C1500   1.398       .  A
C1500      H1504   1.081       .  S
C1505      C1506   1.409       .  A
C1505      C1510   1.401       .  A
C1505      H1511   1.083       .  S
C1506      C1507   1.407       .  A
C1507      C1508   1.405       .  A
C1507      H1512   1.083       .  S
C1508      C1509   1.409       .  A
C1508      H1513   1.083       .  S
C1509      C1510   1.406       .  A
C1510      H1514   1.083       .  S
C1515      C1516   1.407       .  A
C1515      C1520   1.401       .  A
C1515      H1521   1.084       .  S
C1516      C1517   1.405       .  A
C1517      C1518   1.403       .  A
C1517      H1522   1.084       .  S
C1518      C1519   1.409       .  A
C1518      H1523   1.084       .  S
C1519      C1520   1.406       .  A
C1520      H1524   1.083       .  S
C1525      C1526   1.408       .  A
C1525      C1530   1.406   1_655  A
C1525      H1531   1.082       .  S
C1526      C1527   1.406       .  A
C1527      C1528   1.398   1_655  A
C1527      H1532   1.084       .  S
C1528      C1529   1.406       .  A
C1528      H1533   1.082       .  S
C1529      C1530   1.408       .  A
C1530      H1534   1.084       .  S
C1535      C1536   1.402       .  A
C1535      C1540   1.397       .  A
C1535      H1541   1.083       .  S
C1536      C1537   1.410       .  A
C1537      C1538   1.399       .  A
C1537      H1542   1.083       .  S
C1538      C1539   1.402       .  A
C1538      H1543   1.083       .  S
C1539      C1540   1.408       .  A
C1540      H1544   1.084       .  S
C1545      C1546   1.399   1_554  A
C1545      C1550   1.387       .  A
C1545      H1551   1.083       .  S
C1546      C1547   1.405       .  A
C1547      C1548   1.385       .  A
C1547      H1552   1.084       .  S
C1548      C1549   1.399   1_556  A
C1548      H1553   1.083       .  S
C1549      C1550   1.405       .  A
C1550      H1554   1.084       .  S
C1555      C1556   1.407       .  A
C1555      C1560   1.403       .  A
C1555      H1561   1.083       .  S
C1556      C1557   1.407       .  A
C1557      C1558   1.399       .  A
C1557      H1562   1.083       .  S
C1558      C1559   1.406       .  A
C1558      H1563   1.083       .  S
C1559      C1560   1.408       .  A
C1560      H1564   1.083       .  S
C1565      C1566   1.407       .  A
C1565      C1570   1.397       .  A
C1565      H1571   1.084       .  S
C1566      C1567   1.403       .  A
C1567      C1568   1.400       .  A
C1567      H1572   1.083       .  S
C1568      C1569   1.409       .  A
C1568      H1573   1.084       .  S
C1569      C1570   1.403       .  A
C1570      H1574   1.083       .  S
C1575      C1576   1.408       .  A
C1575      C1580   1.410       .  A
C1575      H1581   1.083       .  S
C1576      C1577   1.410       .  A
C1577      C1578   1.408       .  A
C1577      H1582   1.082       .  S
C1578      C1579   1.408       .  A
C1578      H1583   1.083       .  S
C1579      C1580   1.411       .  A
C1580      H1584   1.082       .  S
C1585      C1586   1.412       .  A
C1585      C1590   1.400   1_556  A
C1585      H1591   1.083       .  S
C1586      C1587   1.404       .  A
C1587      H1592   1.083       .  S
C1588      C1589   1.411   1_556  A
C1588      H1593   1.083   1_545  S
C1590      H1594   1.083       .  S
C1595      C1596   1.400       .  A
C1595      C1600   1.400   1_556  A
C1595      H1601   1.083       .  S
C1596      C1597   1.411   1_556  A
C1597      C1598   1.401       .  A
C1597      H1602   1.083       .  S
C1598      C1599   1.402       .  A
C1598      H1603   1.083       .  S
C1599      C1600   1.413       .  A
C1600      H1604   1.083       .  S
C1605      C1606   1.406       .  A
C1605      C1610   1.398   1_655  A
C1605      H1611   1.083       .  S
C1606      C1607   1.407       .  A
C1607      C1608   1.403   1_655  A
C1607      H1612   1.083       .  S
C1608      C1609   1.407       .  A
C1608      H1613   1.083       .  S
C1609      C1610   1.406       .  A
C1610      H1614   1.083       .  S
C1615      C1616   1.402       .  A
C1615      C1620   1.397       .  A
C1615      H1621   1.083       .  S
C1616      C1617   1.409       .  A
C1617      C1618   1.400       .  A
C1617      H1622   1.084       .  S
C1618      C1619   1.403       .  A
C1618      H1623   1.083       .  S
C1619      C1620   1.409       .  A
C1620      H1624   1.084       .  S
C1625      C1626   1.411       .  A
C1625      C1630   1.411       .  A
C1625      H1631   1.082       .  S
C1627      C1628   1.410       .  A
C1627      H1632   1.083       .  S
C1628      C1629   1.411       .  A
C1628      H1633   1.082       .  S
C1630      H1634   1.083       .  S
C1635      C1636   1.399       .  A
C1635      C1640   1.399   1_554  A
C1635      H1641   1.083       .  S
C1637      H1642   1.083       .  S
C1638      C1639   1.401       .  A
C1638      H1643   1.083       .  S
C1639      C1640   1.413       .  A
C1640      H1644   1.084       .  S
C1645      C1646   1.413       .  A
C1645      C1650   1.401   1_554  A
C1645      H1651   1.083       .  S
C1646      C1647   1.401       .  A
C1647      C1648   1.399       .  A
C1647      H1652   1.083       .  S
C1648      C1649   1.410   1_554  A
C1648      H1653   1.083       .  S
C1649      C1650   1.400       .  A
C1650      H1654   1.083       .  S
C1655      C1656   1.405       .  A
C1655      C1660   1.384       .  A
C1655      H1661   1.084       .  S
C1656      C1657   1.398   1_554  A
C1657      C1658   1.387       .  A
C1657      H1662   1.083       .  S
C1658      C1659   1.406       .  A
C1658      H1663   1.084       .  S
C1659      C1660   1.397   1_556  A
C1660      H1664   1.083       .  S
