geometry optimzed in LAMMPS
_audit_creation_date              2020-12-01 
_audit_creation_method            'lammps2cif' 
_symmetry_space_group_name_H-M    'P1' 
_symmetry_Int_Tables_number       1 
_symmetry_cell_setting            triclinic 
loop_ 
_symmetry_equiv_pos_as_xyz 
  x,y,z 
_cell_length_a                    29.67060084 
_cell_length_b                    44.3581132280278 
_cell_length_c                    29.29965339415021 
_cell_angle_alpha                 89.48542445387423 
_cell_angle_beta                  109.23395274906883 
_cell_angle_gamma                 90.0076755198008 
loop_ 
_atom_site_label 
_atom_site_type_symbol 
_atom_site_fract_x 
_atom_site_fract_y 
_atom_site_fract_z 
_atom_site_charge 
O1          O  0.69345121  0.77879972  0.32565095    -0.82400
C2          C  0.59330650  0.85817361  0.18569355     0.97000
O3          O  0.58747314  0.84549801  0.22233804    -0.71500
O4          O  0.60003983  0.80170078  0.28631727    -0.75100
Al5        Al  0.63626452  0.83572102  0.28247018     1.49000
C6          C  0.59004000  0.77745498  0.26358751     0.92200
O7          O  0.67800734  0.77189750  0.19215205    -0.81300
O8          O  0.75502729  0.82302398  0.22949716    -0.74900
Al9        Al  0.68366342  0.77915342  0.25775610     1.90100
O10         O  0.66945009  0.81648490  0.15798882    -0.73900
O11         O  0.72169070  0.87131768  0.25969495    -0.73800
O12         O  0.63499253  0.86400486  0.18525782    -0.79400
O13         O  0.66246666  0.87529722  0.28738147    -0.77600
O14         O  0.67178284  0.81874399  0.25084880    -1.13800
O15         O  0.68179388  0.82553351  0.34495382    -0.73000
C16         C  0.69659534  0.79872580  0.35730411     0.97800
C17         C  0.67124060  0.78831200  0.15515230     0.94100
Al18       Al  0.69346586  0.84166248  0.21190501     1.55600
O19         O  0.61697493  0.76781927  0.24131930    -0.77600
C20         C  0.69893819  0.88645713  0.28102590     0.98300
C21         C  0.77458788  0.80088726  0.25602651     0.93200
O22         O  0.75076781  0.78410620  0.27457485    -0.82900
O23         O  0.23492546  0.78051082  0.70870448    -0.82400
C24         C  0.32864957  0.85565085  0.86452565     0.97000
O25         O  0.33687088  0.85661340  0.82440116    -0.71500
O26         O  0.35474101  0.80659640  0.78867438    -0.75100
Al27       Al  0.30649910  0.83515294  0.76321823     1.49000
C28         C  0.35408410  0.77840823  0.78683416     0.92200
O29         O  0.26786871  0.76851247  0.84363834    -0.81300
O30         O  0.17149418  0.82909016  0.77100418    -0.74900
Al31       Al  0.25217596  0.77713572  0.77605834     1.90100
O32         O  0.22606470  0.80586371  0.85752220    -0.73900
O33         O  0.23071567  0.87543104  0.78595044    -0.73800
O34         O  0.28861477  0.84719697  0.86586900    -0.79400
O35         O  0.26625932  0.86843025  0.73294425    -0.77600
O36         O  0.26374730  0.81671006  0.78487324    -1.13800
O37         O  0.28475694  0.81504799  0.69981633    -0.73000
C38         C  0.25499574  0.79387842  0.68249955     0.97800
C39         C  0.24665689  0.78085538  0.86953909     0.94100
Al40       Al  0.23219599  0.83768842  0.81686487     1.55600
O41         O  0.31565480  0.76440725  0.78068059    -0.77600
C42         C  0.24221154  0.88498236  0.75093987     0.98300
C43         C  0.15664918  0.80228285  0.76334777     0.93200
O44         O  0.18574701  0.78062955  0.76813267    -0.82900
O45         O  0.68714330  0.71233563  0.77131473    -0.82400
C46         C  0.83175121  0.63602191  0.86617730     0.97000
O47         O  0.79169740  0.64427595  0.86762581    -0.71500
O48         O  0.72912587  0.68537258  0.86021369    -0.75100
Al49       Al  0.73503846  0.65468005  0.81852987     1.49000
C50         C  0.74900559  0.71047532  0.87237887     0.92200
O51         O  0.81594082  0.72995411  0.78151801    -0.81300
O52         O  0.79125548  0.68246696  0.70499966    -0.74900
Al53       Al  0.75306962  0.71641955  0.77823619     1.90100
O54         O  0.85741934  0.68840665  0.79672490    -0.73900
O55         O  0.77122961  0.62790869  0.73345120    -0.73800
O56         O  0.83991349  0.63623953  0.82613962    -0.79400
O57         O  0.73449728  0.61830181  0.78518849    -0.77600
O58         O  0.76617275  0.67697015  0.78735529    -1.13800
O59         O  0.67343348  0.66382058  0.77340175    -0.73000
C60         C  0.65823344  0.69067648  0.76655447     0.97800
C61         C  0.85524288  0.71638032  0.79046944     0.94100
Al62       Al  0.81069137  0.66011586  0.76685894     1.55600
O63         O  0.76900125  0.72403637  0.84605208    -0.77600
C64         C  0.74685657  0.61040662  0.74995789     0.98300
C65         C  0.75948276  0.70247776  0.68627810     0.93200
O66         O  0.73536713  0.71345123  0.71051772    -0.82900
O67         O  0.24997532  0.70634863  0.27670187    -0.82400
C68         C  0.09528159  0.63102218  0.18856730     0.97000
O69         O  0.13740242  0.62518840  0.18967879    -0.71500
O70         O  0.16788084  0.67335046  0.15943365    -0.75100
Al71       Al  0.19422340  0.64903463  0.21466650     1.49000
C72         C  0.17146114  0.70136923  0.15555274     0.92200
O73         O  0.11627838  0.72252487  0.23933303    -0.81300
O74         O  0.17952106  0.66642257  0.34741260    -0.74900
Al75       Al  0.18290461  0.71140087  0.25772770     1.90100
O76         O  0.09783226  0.68865282  0.28445071    -0.73900
O77         O  0.16512053  0.61553696  0.29257026    -0.73800
O78         O  0.08840454  0.64380578  0.22426671    -0.79400
O79         O  0.22417570  0.62055550  0.26442283    -0.77600
O80         O  0.17164822  0.67182650  0.25259892    -1.13800
O81         O  0.25486509  0.66903298  0.23000223    -0.73000
C82         C  0.27390382  0.69085772  0.25687405     0.97800
C83         C  0.08877533  0.71312329  0.26133899     0.94100
Al84       Al  0.13600538  0.65479956  0.28446266     1.55600
O85         O  0.17921893  0.71803361  0.19200719    -0.77600
C86         C  0.20212950  0.60498426  0.28634459     0.98300
C87         C  0.19278935  0.69358575  0.35803123     0.93200
O88         O  0.19051897  0.71273102  0.32501811    -0.82900
O89         O  0.76980925  0.21283874  0.25642889    -0.82400
C90         C  0.62521122  0.13764246  0.16200103     0.97000
O91         O  0.66461497  0.14620945  0.15880098    -0.71500
O92         O  0.72962721  0.18651633  0.16662626    -0.75100
Al93       Al  0.72195774  0.15565508  0.20768444     1.49000
C94         C  0.71040693  0.21174946  0.15352806     0.92200
O95         O  0.63941414  0.23071983  0.23941955    -0.81300
O96         O  0.67078386  0.18114202  0.32463898    -0.74900
Al97       Al  0.70325152  0.21744085  0.24648539     1.90100
O98         O  0.60102941  0.18846559  0.23573802    -0.73900
O99         O  0.68954889  0.12728091  0.29388905    -0.73800
O100        O  0.61827659  0.13756930  0.20273866    -0.79400
O101        O  0.72228513  0.11820849  0.23921555    -0.77600
O102        O  0.69129221  0.17775090  0.23937219    -1.13800
O103        O  0.78290209  0.16407021  0.25334312    -0.73000
C104        C  0.79828352  0.19072345  0.26243555     0.97800
C105        C  0.60102353  0.21665856  0.23325116     0.94100
Al106      Al  0.64898770  0.16010406  0.26240188     1.55600
O107        O  0.68899393  0.22490732  0.17849805    -0.77600
C108        C  0.71165790  0.10967466  0.27524837     0.98300
C109        C  0.69994349  0.20267102  0.34101275     0.93200
O110        O  0.71931619  0.21587754  0.31408701    -0.82900
O111        O  0.20849483  0.20831750  0.74506834    -0.82400
C112        C  0.36195522  0.13222029  0.84020142     0.97000
O113        O  0.31955778  0.12667995  0.83820755    -0.71500
O114        O  0.28995788  0.17562608  0.86599070    -0.75100
Al115      Al  0.26371292  0.15123452  0.81154694     1.49000
C116        C  0.28347099  0.20344971  0.86828382     0.92200
O117        O  0.34329351  0.22339502  0.78775316    -0.81300
O118        O  0.28150623  0.16783008  0.67967374    -0.74900
Al119      Al  0.27611931  0.21312962  0.76659291     1.90100
O120        O  0.36294441  0.18933233  0.74431009    -0.73900
O121        O  0.29311200  0.11699768  0.73520830    -0.73800
O122        O  0.36989094  0.14443079  0.80436049    -0.79400
O123        O  0.23369441  0.12310705  0.76247681    -0.77600
O124        O  0.28720235  0.17347491  0.77346440    -1.13800
O125        O  0.20397739  0.17184455  0.79443900    -0.73000
C126        C  0.18470796  0.19323545  0.76599659     0.97800
C127        C  0.37260387  0.21308570  0.76867642     0.94100
Al128      Al  0.32354143  0.15589047  0.74334516     1.55600
O129        O  0.27634257  0.22001232  0.83127477    -0.77600
C130        C  0.25525501  0.10725317  0.74077746     0.98300
C131        C  0.26926771  0.19509109  0.66766490     0.93200
O132        O  0.27153776  0.21452207  0.69977688    -0.82900
O133        O  0.77026178  0.28147884  0.70144183    -0.82400
C134        C  0.86099777  0.36537376  0.83668129     0.97000
O135        O  0.86984232  0.35223279  0.80225619    -0.71500
O136        O  0.86335776  0.30722227  0.74249834    -0.75100
Al137      Al  0.82364536  0.34022593  0.74161657     1.49000
C138        C  0.87307020  0.28289048  0.76570791     0.92200
O139        O  0.78368435  0.27692908  0.83569689    -0.81300
O140        O  0.70337072  0.32494865  0.79308252    -0.74900
Al141      Al  0.77860470  0.28291382  0.76920890     1.90100
O142        O  0.78890308  0.32249477  0.86493687    -0.73900
O143        O  0.73261785  0.37300923  0.75751547    -0.73800
O144        O  0.81824496  0.37061438  0.83389754    -0.79400
O145        O  0.79330351  0.37884875  0.73214133    -0.77600
O146        O  0.78773457  0.32277308  0.77289945    -1.13800
O147        O  0.78142252  0.32780577  0.67879779    -0.73000
C148        C  0.76808658  0.30064374  0.66835197     0.97800
C149        C  0.78885210  0.29445029  0.87081502     0.94100
Al150      Al  0.76286287  0.34569608  0.80876321     1.55600
O151        O  0.84564467  0.27303621  0.78740070    -0.77600
C152        C  0.75514658  0.38877316  0.73641644     0.98300
C153        C  0.68592149  0.30194266  0.76869157     0.93200
O154        O  0.71108513  0.28599188  0.75091827    -0.82900
O155        O  0.21740763  0.27870845  0.30723552    -0.82400
C156        C  0.11971558  0.36016137  0.15813462     0.97000
O157        O  0.11293383  0.35850368  0.19879519    -0.71500
O158        O  0.09379300  0.30709524  0.23040219    -0.75100
Al159      Al  0.14385700  0.33411943  0.25699733     1.49000
C160        C  0.09477956  0.27909538  0.23615024     0.92200
O161        O  0.17248158  0.26907634  0.17132469    -0.81300
O162        O  0.27773809  0.32492380  0.24053709    -0.74900
Al163      Al  0.19421849  0.27611830  0.23951861     1.90100
O164        O  0.21370078  0.30622617  0.15448441    -0.73900
O165        O  0.22214399  0.37352451  0.23503252    -0.73800
O166        O  0.15816460  0.35084968  0.15386598    -0.79400
O167        O  0.18634172  0.36544353  0.28803164    -0.77600
O168        O  0.18439324  0.31598581  0.23227580    -1.13800
O169        O  0.16649969  0.31141755  0.31889151    -0.73000
C170        C  0.19749420  0.29049926  0.33476203     0.97800
C171        C  0.19171072  0.28157566  0.14336776     0.94100
Al172      Al  0.21518931  0.33718584  0.19928348     1.55600
O173        O  0.13260479  0.26463153  0.24153946    -0.77600
C174        C  0.21079107  0.38223290  0.27053884     0.98300
C175        C  0.28950187  0.29736404  0.24403719     0.93200
O176        O  0.25837642  0.27735384  0.24069445    -0.82900
C177        C  0.89989306  0.37278097  0.88254926    -0.01900
C178        C  0.94761788  0.37536210  0.88473421    -0.09900
C179        C  0.98429462  0.37866540  0.92929510    -0.18700
C180        C  0.97451142  0.37848837  0.97359913     0.03700
C181        C  0.92602350  0.37613293  0.97108724     0.17900
C182        C  0.88950283  0.37399412  0.92604193    -0.20100
C183        C  0.91430658  0.37452816  0.01365065    -0.21400
C184        C  0.94982777  0.37372890  0.05877840    -0.19900
C185        C  0.99809634  0.37515198  0.06273281     0.19300
C186        C  0.01103073  0.37881059  0.02027238     0.01400
C187        C  0.06008589  0.38152542  0.02641829    -0.14700
C188        C  0.09474669  0.37773478  0.07193811    -0.12400
C189        C  0.08216374  0.37132642  0.11327524     0.00900
C190        C  0.03353156  0.37148990  0.10864174    -0.24600
H191        H  0.95676091  0.37430643  0.85190943     0.08900
H192        H  0.02010155  0.38006366  0.92806063     0.12500
H193        H  0.85287466  0.37144822  0.92515060     0.11200
H194        H  0.87736381  0.37276187  0.01199213     0.12400
H195        H  0.93946284  0.37131465  0.09079544     0.11400
H196        H  0.07280071  0.38578473  0.99652971     0.08500
H197        H  0.13195186  0.37853871  0.07432582     0.11800
H198        H  0.02313346  0.36686980  0.14016891     0.13600
C199        C  0.20932531  0.27738468  0.38480233    -0.01900
C200        C  0.23855094  0.25153249  0.39708674    -0.09900
C201        C  0.24742450  0.23660028  0.44141299    -0.18700
C202        C  0.22774222  0.24699553  0.47614299     0.03700
C203        C  0.19917543  0.27365140  0.46458667     0.17900
C204        C  0.18978326  0.28833013  0.41913352    -0.20100
C205        C  0.18023869  0.28543497  0.49859860    -0.21400
C206        C  0.18949036  0.27169980  0.54380069    -0.19900
C207        C  0.21714814  0.24533678  0.55604951     0.19300
C208        C  0.23592689  0.23219119  0.52211743     0.01400
C209        C  0.26208811  0.20487444  0.53589673    -0.14700
C210        C  0.27077743  0.19194386  0.58203184    -0.12400
C211        C  0.25414705  0.20580558  0.61622670     0.00900
C212        C  0.22667503  0.23232806  0.60243844    -0.24600
H213        H  0.25425661  0.24219130  0.37175904     0.08900
H214        H  0.27016109  0.21697714  0.44753372     0.12500
H215        H  0.16705825  0.30816578  0.41045645     0.11200
H216        H  0.15849718  0.30570768  0.49042312     0.12400
H217        H  0.17483336  0.28177203  0.56939709     0.11400
H218        H  0.27656426  0.19305022  0.51189860     0.08500
H219        H  0.29216825  0.17161358  0.59157755     0.11800
H220        H  0.21318894  0.24322517  0.62829483     0.13600
C221        C  0.27796771  0.21576156  0.91295569    -0.01900
C222        C  0.28185679  0.19659313  0.95247236    -0.09900
C223        C  0.26549735  0.20568915  0.98978055    -0.18700
C224        C  0.24460832  0.23441214  0.98878753     0.03700
C225        C  0.24401823  0.25451788  0.95044980     0.17900
C226        C  0.26048852  0.24506429  0.91313953    -0.20100
C227        C  0.22598735  0.28376153  0.94895039    -0.21400
C228        C  0.20893841  0.29368058  0.98500865    -0.19900
C229        C  0.20833184  0.27431739  0.02275450     0.19300
C230        C  0.22488263  0.24413062  0.02463575     0.01400
C231        C  0.22107135  0.22519797  0.06243833    -0.14700
C232        C  0.20543879  0.23662640  0.09908362    -0.12400
C233        C  0.19317233  0.26707786  0.09890231     0.00900
C234        C  0.19288204  0.28542428  0.05968733    -0.24600
H235        H  0.29562408  0.17388679  0.95354879     0.08900
H236        H  0.26918392  0.18961282  0.01867800     0.12500
H237        H  0.25743683  0.26016053  0.88290177     0.11200
H238        H  0.22549832  0.29921647  0.91988679     0.12400
H239        H  0.19614242  0.31666985  0.98338040     0.11400
H240        H  0.23095826  0.20168924  0.06522095     0.08500
H241        H  0.20612315  0.22216157  0.12929620     0.11800
H242        H  0.18308090  0.30900720  0.05939437     0.13600
C243        C  0.41863659  0.22805976  0.77266646    -0.01900
C244        C  0.42954134  0.25755630  0.78934696    -0.09900
C245        C  0.47199792  0.27142961  0.78856622    -0.18700
C246        C  0.50468195  0.25609843  0.77065451     0.03700
C247        C  0.49336568  0.22609299  0.75448234     0.17900
C248        C  0.45147854  0.21246342  0.75627768    -0.20100
C249        C  0.52344877  0.20974379  0.73569742    -0.21400
C250        C  0.56478405  0.22257979  0.73225142    -0.19900
C251        C  0.57758597  0.25191636  0.74827468     0.19300
C252        C  0.54803083  0.26917849  0.76795523     0.01400
C253        C  0.56369072  0.29847469  0.78453350    -0.14700
C254        C  0.60742836  0.30961431  0.78291986    -0.12400
C255        C  0.63662969  0.29222073  0.76408313     0.00900
C256        C  0.62069897  0.26364240  0.74587200    -0.24600
H257        H  0.40483040  0.27015255  0.80208727     0.08900
H258        H  0.47793328  0.29423518  0.80136690     0.12500
H259        H  0.44403717  0.18950237  0.74370012     0.11200
H260        H  0.51477053  0.18686451  0.72322513     0.12400
H261        H  0.58722178  0.20928916  0.71741159     0.11400
H262        H  0.54350956  0.31293213  0.79999419     0.08500
H263        H  0.61892206  0.33171888  0.79759238     0.11800
H264        H  0.64298599  0.24978762  0.73163126     0.13600
C265        C  0.13488391  0.20199249  0.76050220    -0.01900
C266        C  0.11116331  0.18834021  0.78956269    -0.09900
C267        C  0.06711657  0.19922527  0.79006637    -0.18700
C268        C  0.04513296  0.22435630  0.76141973     0.03700
C269        C  0.06843288  0.23732962  0.73053646     0.17900
C270        C  0.11266136  0.22610992  0.73031122    -0.18500
C271        C  0.04811165  0.26198652  0.70086364    -0.21400
C272        C  0.00563943  0.27453266  0.70188567    -0.19900
C273        C  0.98254370  0.26286668  0.73281420     0.19300
C274        C  0.00148142  0.23747620  0.76282713     0.01400
C275        C  0.97623458  0.22685537  0.79335383    -0.14700
C276        C  0.93442041  0.24121654  0.79442511    -0.12400
C277        C  0.91659078  0.26654071  0.76523642     0.00900
C278        C  0.94078613  0.27687911  0.73419281    -0.24600
H279        H  0.12744246  0.16967403  0.81337498     0.08900
H280        H  0.05158640  0.18782803  0.81392989     0.12500
H281        H  0.13053995  0.23687570  0.70766324     0.11200
H282        H  0.06549463  0.27188346  0.67710232     0.12400
H283        H  0.99108667  0.29384012  0.67875647     0.11400
H284        H  0.98816538  0.20766120  0.81716479     0.08500
H285        H  0.91630870  0.23267828  0.81846078     0.11800
H286        H  0.92722228  0.29625351  0.71082745     0.13600
C287        C  0.71033758  0.21458643  0.39125817    -0.01900
C288        C  0.68394297  0.20569297  0.42094108    -0.09900
C289        C  0.69047376  0.21985404  0.46552072    -0.18700
C290        C  0.72371504  0.24368361  0.48204850     0.03700
C291        C  0.75091383  0.25224145  0.45224085     0.17900
C292        C  0.74425794  0.23771869  0.40789716    -0.20100
C293        C  0.78436916  0.27558041  0.46646243    -0.21400
C294        C  0.79157681  0.29066813  0.50975510    -0.19900
C295        C  0.76568563  0.28288511  0.54030253     0.19300
C296        C  0.73124714  0.25929709  0.52690159     0.01400
C297        C  0.70651861  0.25219635  0.55940790    -0.14700
C298        C  0.71703141  0.26683555  0.60392725    -0.12400
C299        C  0.75169765  0.28960406  0.61752088     0.00900
C300        C  0.77508144  0.29797634  0.58484245    -0.24600
H301        H  0.65723780  0.18821089  0.40915198     0.08900
H302        H  0.66852887  0.21193684  0.48600372     0.12500
H303        H  0.76508916  0.24507492  0.38565384     0.11200
H304        H  0.80519389  0.28224003  0.44386747     0.12400
H305        H  0.81798850  0.30848350  0.51959680     0.11400
H306        H  0.67964103  0.23485011  0.55195072     0.08500
H307        H  0.69857225  0.25980061  0.62854421     0.11800
H308        H  0.80259921  0.31512059  0.59526018     0.13600
C309        C  0.78924183  0.28263180  0.91829364    -0.01900
C310        C  0.78458275  0.30275329  0.95319880    -0.09900
C311        C  0.77244669  0.29248308  0.99271151    -0.18700
C312        C  0.76473239  0.26152852  0.99872500     0.03700
C313        C  0.77415729  0.24097794  0.96587980     0.17900
C314        C  0.78612418  0.25164301  0.92607926    -0.20100
C315        C  0.76975821  0.20994366  0.97184556    -0.21400
C316        C  0.75492533  0.19887123  0.00899205    -0.19900
C317        C  0.74325050  0.21859378  0.04043104     0.19300
C318        C  0.74762752  0.25023073  0.03577134     0.01400
C319        C  0.73381060  0.26906350  0.06781658    -0.14700
C320        C  0.71857301  0.25676925  0.10444748    -0.12400
C321        C  0.71664315  0.22552786  0.11002462     0.00900
C322        C  0.72781377  0.20669424  0.07704065    -0.24600
H323        H  0.78762750  0.32685388  0.94865299     0.08900
H324        H  0.76840188  0.30933348  0.01729579     0.12500
H325        H  0.79041521  0.23585776  0.89976628     0.11200
H326        H  0.77742652  0.19414081  0.94736240     0.12400
H327        H  0.75188653  0.17468615  0.01272195     0.11400
H328        H  0.73473474  0.29328530  0.06572118     0.08500
H329        H  0.71030247  0.27169856  0.12967887     0.11800
H330        H  0.72586369  0.18241543  0.08079755     0.13600
C331        C  0.84946797  0.19743942  0.27488287    -0.01900
C332        C  0.86708747  0.22405489  0.29955093    -0.09900
C333        C  0.91004105  0.23619837  0.29881206    -0.18700
C334        C  0.93627390  0.22231458  0.27230218     0.03700
C335        C  0.92119459  0.19351441  0.25218615     0.17900
C336        C  0.87796074  0.18126394  0.25373409    -0.20100
C337        C  0.94803152  0.17805604  0.22843381    -0.21400
C338        C  0.98866215  0.19108450  0.22280598    -0.19900
C339        C  0.00227500  0.22037738  0.23907296     0.19300
C340        C  0.97584441  0.23646752  0.26366028     0.01400
C341        C  0.98842199  0.26668915  0.27622707    -0.14700
C342        C  0.02580070  0.28027886  0.26525817    -0.12400
C343        C  0.05278393  0.26420192  0.24241120     0.00900
C344        C  0.04137566  0.23405753  0.22991721    -0.24600
H345        H  0.84609847  0.23648004  0.31715201     0.08900
H346        H  0.92103554  0.25697148  0.31819657     0.12500
H347        H  0.86459341  0.16047547  0.23485130     0.11200
H348        H  0.93713523  0.15590568  0.21347652     0.12400
H349        H  0.00849023  0.17863894  0.20401104     0.11400
H350        H  0.96925931  0.28078556  0.29341976     0.08500
H351        H  0.03443613  0.30347149  0.27590767     0.11800
H352        H  0.06220260  0.22155197  0.21221841     0.13600
C353        C  0.33767844  0.28698053  0.24584711    -0.01900
C354        C  0.34210029  0.25692584  0.23330934    -0.09900
C355        C  0.38393555  0.24620337  0.22817397    -0.18700
C356        C  0.42385991  0.26502464  0.23582779     0.03700
C357        C  0.42118666  0.29488837  0.25201335     0.17900
C358        C  0.37769318  0.30596941  0.25565274    -0.20100
C359        C  0.46207754  0.31308258  0.26460523    -0.21400
C360        C  0.50539144  0.30194566  0.26220290    -0.19900
C361        C  0.50830970  0.27289073  0.24474305     0.19300
C362        C  0.46677354  0.25466055  0.22939413     0.01400
C363        C  0.46965381  0.22672642  0.20788341    -0.14700
C364        C  0.51291218  0.21585370  0.20626873    -0.12400
C365        C  0.55503785  0.23234898  0.22571688     0.00900
C366        C  0.55236094  0.26148604  0.24331386    -0.24600
H367        H  0.31233586  0.24145654  0.22583321     0.08900
H368        H  0.38410295  0.22268006  0.21902054     0.12500
H369        H  0.37504814  0.32912840  0.26607068     0.11200
H370        H  0.46085402  0.33579721  0.27748631     0.12400
H371        H  0.53666765  0.31623722  0.27363163     0.11400
H372        H  0.43892417  0.21263300  0.19180751     0.08500
H373        H  0.51363836  0.19373069  0.19110838     0.11800
H374        H  0.58467220  0.27462620  0.25789365     0.13600
C375        C  0.58682271  0.12914746  0.11626841    -0.01900
C376        C  0.59874878  0.12367620  0.07444531    -0.09900
C377        C  0.56360106  0.12090848  0.02908993    -0.18700
C378        C  0.51465749  0.12373708  0.02354580     0.03700
C379        C  0.50235528  0.12730837  0.06628303     0.17900
C380        C  0.53826679  0.13001609  0.11198226    -0.20100
C381        C  0.45424095  0.12904184  0.06292332    -0.21400
C382        C  0.41820790  0.12780127  0.01817461    -0.19900
C383        C  0.42919702  0.12554341  0.97531539     0.19300
C384        C  0.47758315  0.12370176  0.97721502     0.01400
C385        C  0.48663878  0.12319654  0.93258294    -0.14700
C386        C  0.44930297  0.12501726  0.88818710    -0.12400
C387        C  0.40160954  0.12649877  0.88650270     0.00900
C388        C  0.39201923  0.12623744  0.93047335    -0.24600
H389        H  0.63582979  0.12238523  0.07647893     0.08900
H390        H  0.57587174  0.11694523  0.99890952     0.12500
H391        H  0.52836218  0.13420132  0.14382439     0.11200
H392        H  0.44438095  0.13161716  0.09514726     0.12400
H393        H  0.38137979  0.12941230  0.01701098     0.11400
H394        H  0.52233587  0.12250398  0.93083824     0.08500
H395        H  0.45787044  0.12571875  0.85500132     0.11800
H396        H  0.35540242  0.12821383  0.92991878     0.13600
C397        C  0.22259560  0.41349620  0.28862472    -0.01900
C398        C  0.19985646  0.42650257  0.31875566    -0.09900
C399        C  0.20256335  0.45757179  0.32740464    -0.18700
C400        C  0.22800149  0.47683532  0.30581923     0.03700
C401        C  0.25404090  0.46318290  0.27845772     0.17900
C402        C  0.25121406  0.43191639  0.27027333    -0.20100
C403        C  0.28088911  0.48099648  0.25731927    -0.21400
C404        C  0.28028351  0.51225197  0.26029712    -0.19900
C405        C  0.25235096  0.52655872  0.28400056     0.19300
C406        C  0.22671520  0.50911525  0.30820127     0.01400
C407        C  0.19874488  0.52483090  0.33114434    -0.14700
C408        C  0.19338393  0.55620100  0.32676615    -0.12400
C409        C  0.21641527  0.57312263  0.30030926     0.00900
C410        C  0.24766495  0.55817709  0.28103228    -0.24600
H411        H  0.17778214  0.41286956  0.33376297     0.08900
H412        H  0.18305092  0.46598307  0.34989370     0.12500
H413        H  0.26941949  0.42216218  0.24729670     0.11200
H414        H  0.30135667  0.47071956  0.23697184     0.12400
H415        H  0.30028919  0.52537303  0.24217893     0.11400
H416        H  0.17876806  0.51338256  0.35087713     0.08500
H417        H  0.16936648  0.56711422  0.34244987     0.11800
H418        H  0.26575470  0.57091728  0.26048647     0.13600
C419        C  0.73537126  0.57940719  0.73108956    -0.01900
C420        C  0.75947695  0.56620918  0.70244558    -0.09900
C421        C  0.75629216  0.53515126  0.69369308    -0.18700
C422        C  0.72922788  0.51623744  0.71402301     0.03700
C423        C  0.70214050  0.53019258  0.73998495     0.17900
C424        C  0.70493154  0.56140780  0.74760993    -0.20100
C425        C  0.67457223  0.51275126  0.76077087    -0.21400
C426        C  0.67562922  0.48148975  0.75905799    -0.19900
C427        C  0.70413432  0.46689970  0.73632907     0.19300
C428        C  0.73014327  0.48399900  0.71207743     0.01400
C429        C  0.75803237  0.46802058  0.68940678    -0.14700
C430        C  0.76323365  0.43673157  0.69440488    -0.12400
C431        C  0.74026670  0.42023717  0.72133002     0.00900
C432        C  0.70893843  0.43535477  0.74020498    -0.24600
H433        H  0.78291424  0.57961694  0.68887493     0.08900
H434        H  0.77699900  0.52647621  0.67263504     0.12500
H435        H  0.68549630  0.57141986  0.76922690     0.11200
H436        H  0.65347483  0.52332963  0.78019120     0.12400
H437        H  0.65534795  0.46862468  0.77718149     0.11400
H438        H  0.77782535  0.47914721  0.66926268     0.08500
H439        H  0.78719098  0.42556701  0.67890642     0.11800
H440        H  0.69093162  0.42286001  0.76108414     0.13600
C441        C  0.05459481  0.62476456  0.14333765    -0.01900
C442        C  0.00700141  0.62757939  0.14170208    -0.09900
C443        C  0.96923568  0.62589101  0.09765868    -0.18700
C444        C  0.97776964  0.62201651  0.05316585     0.03700
C445        C  0.02598508  0.61885542  0.05502965     0.17900
C446        C  0.06345772  0.61968184  0.09966974    -0.20100
C447        C  0.03673818  0.61608071  0.01210840    -0.21400
C448        C  0.00085730  0.61741136  0.96719908    -0.19900
C449        C  0.95295455  0.62092218  0.96379881     0.19300
C450        C  0.94062270  0.62238045  0.00682838     0.01400
C451        C  0.89170646  0.62475067  0.00146010    -0.14700
C452        C  0.85700024  0.62738804  0.95576160    -0.12400
C453        C  0.86922017  0.62782799  0.91322725     0.00900
C454        C  0.91746861  0.62379675  0.91766932    -0.24600
H455        H  0.99892062  0.63182989  0.17451989     0.08900
H456        H  0.93375543  0.62879158  0.09942597     0.12500
H457        H  0.10003241  0.61798106  0.09996853     0.11200
H458        H  0.07345229  0.61367940  0.01321509     0.12400
H459        H  0.01074612  0.61600960  0.93481879     0.11400
H460        H  0.87912395  0.62500931  0.03204221     0.08500
H461        H  0.82017607  0.63007740  0.95399219     0.11800
H462        H  0.92769705  0.62399319  0.88538740     0.13600
C463        C  0.23883667  0.07597867  0.72613501    -0.01900
C464        C  0.20394844  0.06258906  0.74233390    -0.09900
C465        C  0.19569041  0.03151196  0.73832490    -0.18700
C466        C  0.22246600  0.01261395  0.71811781     0.03700
C467        C  0.25438288  0.02666334  0.69747873     0.17900
C468        C  0.26223499  0.05800330  0.70161113    -0.20100
C469        C  0.28027012  0.00913785  0.67518235    -0.21400
C470        C  0.27780274  0.97780439  0.67598249    -0.19900
C471        C  0.24998402  0.96315965  0.69976986     0.19300
C472        C  0.22080058  0.98033044  0.71998379     0.01400
C473        C  0.19379655  0.96444657  0.74404697    -0.14700
C474        C  0.19866537  0.93325956  0.75118759    -0.12400
C475        C  0.22983342  0.91660635  0.73393816     0.00900
C476        C  0.25359468  0.93158362  0.70616543    -0.24600
H477        H  0.18462609  0.07591241  0.76062774     0.08900
H478        H  0.16926598  0.02283732  0.75285389     0.12500
H479        H  0.28868681  0.06811092  0.68808594     0.11200
H480        H  0.30395542  0.01970281  0.65850040     0.12400
H481        H  0.29962192  0.96492542  0.65986506     0.11400
H482        H  0.17035944  0.97562790  0.75986511     0.08500
H483        H  0.17931931  0.92230408  0.77223456     0.11800
H484        H  0.27770827  0.91900779  0.69251049     0.13600
C485        C  0.24484293  0.78217587  0.63215745    -0.01900
C486        C  0.26949842  0.79228898  0.60151449    -0.09900
C487        C  0.26361714  0.77795555  0.55715258    -0.18700
C488        C  0.23309390  0.75263608  0.54206313     0.03700
C489        C  0.20744002  0.74298711  0.57272821     0.17900
C490        C  0.21314109  0.75778316  0.61657430    -0.20100
C491        C  0.17663487  0.71820299  0.56001096    -0.21400
C492        C  0.17055653  0.70269284  0.51732547    -0.19900
C493        C  0.19504584  0.71144192  0.48596807     0.19300
C494        C  0.22687252  0.73649237  0.49792548     0.01400
C495        C  0.25057403  0.74433677  0.46487231    -0.14700
C496        C  0.24138549  0.72900626  0.42112432    -0.12400
C497        C  0.20893429  0.70491667  0.40870753     0.00900
C498        C  0.18679052  0.69580371  0.44205320    -0.24600
H499        H  0.29432605  0.81085902  0.61236107     0.08900
H500        H  0.28401210  0.78688411  0.53575163     0.12500
H501        H  0.19358250  0.74946709  0.63946558     0.11200
H502        H  0.15705157  0.71071059  0.58334962     0.12400
H503        H  0.14619237  0.68373718  0.50864385     0.11400
H504        H  0.27561450  0.76273613  0.47132538     0.08500
H505        H  0.25891437  0.73664534  0.39601264     0.11800
H506        H  0.16098955  0.67761552  0.43260714     0.13600
C507        C  0.24267603  0.76641211  0.91327057    -0.01900
C508        C  0.22795357  0.73646500  0.91285024    -0.09900
C509        C  0.21304835  0.72522901  0.95033356    -0.18700
C510        C  0.21273510  0.74380373  0.98937063     0.03700
C511        C  0.23039926  0.77367271  0.99052950     0.17900
C512        C  0.24474796  0.78462323  0.95260899    -0.20100
C513        C  0.23286253  0.79269702  0.02906277    -0.21400
C514        C  0.21868119  0.78260489  0.06714360    -0.19900
C515        C  0.20062677  0.75347983  0.06700752     0.19300
C516        C  0.19621838  0.73387146  0.02759685     0.01400
C517        C  0.17574121  0.70519618  0.02846871    -0.14700
C518        C  0.16407125  0.69551729  0.06864996    -0.12400
C519        C  0.17204908  0.71413931  0.10899124     0.00900
C520        C  0.18846637  0.74353829  0.10697771    -0.24600
H521        H  0.22547315  0.72226501  0.88223492     0.08900
H522        H  0.20148455  0.70204569  0.94751117     0.12500
H523        H  0.25612807  0.80792174  0.95278617     0.11200
H524        H  0.24637269  0.81549420  0.03001067     0.12400
H525        H  0.22193945  0.79766973  0.09697469     0.11400
H526        H  0.16919969  0.68953128  0.99906707     0.08500
H527        H  0.15073481  0.67280109  0.06897328     0.11800
H528        H  0.19450703  0.75821847  0.13782146     0.13600
C529        C  0.39834768  0.76268679  0.78708042    -0.01900
C530        C  0.40541543  0.73156063  0.79515639    -0.09900
C531        C  0.44591310  0.71735067  0.79008496    -0.18700
C532        C  0.47966380  0.73384087  0.77512172     0.03700
C533        C  0.47142964  0.76526254  0.76633425     0.17900
C534        C  0.43218435  0.77925767  0.77355746    -0.20100
C535        C  0.50167462  0.78272123  0.74907669    -0.21400
C536        C  0.54023019  0.76970269  0.74015462    -0.19900
C537        C  0.55058617  0.73915024  0.74993685     0.19300
C538        C  0.52099432  0.72063298  0.76803339     0.01400
C539        C  0.53511548  0.69018710  0.77929349    -0.14700
C540        C  0.57813053  0.67927896  0.77520977    -0.12400
C541        C  0.60756795  0.69822651  0.75874076     0.00900
C542        C  0.59206555  0.72758623  0.74401437    -0.24600
H543        H  0.37942661  0.71818089  0.80497792     0.08900
H544        H  0.44926573  0.69334048  0.79668675     0.12500
H545        H  0.42676716  0.80323557  0.76612353     0.11200
H546        H  0.49517002  0.80662330  0.74194217     0.12400
H547        H  0.56294457  0.78390110  0.72665591     0.11400
H548        H  0.51480950  0.67478579  0.79365835     0.08500
H549        H  0.58967163  0.65660655  0.78756899     0.11800
H550        H  0.61449195  0.74244779  0.73111489     0.13600
C551        C  0.89838140  0.73193059  0.78782305    -0.01900
C552        C  0.90649104  0.76275801  0.79665294    -0.09900
C553        C  0.94638023  0.77672231  0.78990705    -0.18700
C554        C  0.97832771  0.76028142  0.77252446     0.03700
C555        C  0.96866190  0.72922650  0.76245319     0.17900
C556        C  0.92992701  0.71544245  0.77108620    -0.20100
C557        C  0.99722194  0.71194097  0.74305813    -0.21400
C558        C  0.03599442  0.72469849  0.73398814    -0.19900
C559        C  0.04791274  0.75480668  0.74528707     0.19300
C560        C  0.01943453  0.77320429  0.76468103     0.01400
C561        C  0.03443079  0.80326030  0.77663407    -0.14700
C562        C  0.07734047  0.81385956  0.77224108    -0.12400
C563        C  0.10606037  0.79495603  0.75517648     0.00900
C564        C  0.08980221  0.76602433  0.73966588    -0.24600
H565        H  0.88200665  0.77601861  0.80875004     0.08900
H566        H  0.95079490  0.80049407  0.79757898     0.12500
H567        H  0.92319451  0.69173760  0.76272411     0.11200
H568        H  0.98949317  0.68834285  0.73483004     0.12400
H569        H  0.05766440  0.71061683  0.71924069     0.11400
H570        H  0.01492350  0.81861171  0.79170721     0.08500
H571        H  0.08950050  0.83621198  0.78508544     0.11800
H572        H  0.11180447  0.75125332  0.72632296     0.13600
C573        C  0.71192785  0.91828020  0.29522450    -0.01900
C574        C  0.68490010  0.93476534  0.31774173    -0.09900
C575        C  0.69034208  0.96591624  0.32364396    -0.18700
C576        C  0.72279749  0.98197701  0.30656196     0.03700
C577        C  0.75182795  0.96506696  0.28581322     0.17900
C578        C  0.74673710  0.93351243  0.28108905    -0.20100
C579        C  0.78375869  0.97997107  0.26730423    -0.21400
C580        C  0.78495217  0.01133514  0.26566430    -0.19900
C581        C  0.75506617  0.02861982  0.28356493     0.19300
C582        C  0.72531279  0.01425099  0.30647621     0.01400
C583        C  0.69782815  0.03289662  0.32628136    -0.14700
C584        C  0.69626030  0.06419256  0.31928305    -0.12400
C585        C  0.72204438  0.07797299  0.29250954     0.00900
C586        C  0.75302114  0.06010924  0.27662241    -0.24600
H587        H  0.65780687  0.92371961  0.32918358     0.08900
H588        H  0.66694386  0.97696336  0.33971348     0.12500
H589        H  0.76786013  0.92110933  0.26355167     0.11200
H590        H  0.80643318  0.96729928  0.25194117     0.12400
H591        H  0.80846305  0.02215089  0.24900025     0.11400
H592        H  0.67606963  0.02388026  0.34624946     0.08500
H593        H  0.67263023  0.07743661  0.33258675     0.11800
H594        H  0.77393721  0.07056491  0.25664123     0.13600
C595        C  0.71515503  0.78888547  0.40883609    -0.01900
C596        C  0.74764682  0.76474398  0.42242385    -0.09900
C597        C  0.75836362  0.75076155  0.46782431    -0.18700
C598        C  0.73605973  0.76005054  0.50120112     0.03700
C599        C  0.70484822  0.78548293  0.48811461     0.17900
C600        C  0.69526107  0.79981195  0.44265638    -0.20100
C601        C  0.68184388  0.79571876  0.51972637    -0.21400
C602        C  0.68807372  0.78094985  0.56345659    -0.19900
C603        C  0.71759655  0.75547675  0.57695034     0.19300
C604        C  0.74250010  0.74472728  0.54643180     0.01400
C605        C  0.77202710  0.71892916  0.56242836    -0.14700
C606        C  0.77675666  0.70467993  0.60691040    -0.12400
C607        C  0.75195325  0.71538253  0.63683494     0.00900
C608        C  0.72227226  0.74081503  0.62108722    -0.24600
H609        H  0.76375128  0.75594805  0.39702441     0.08900
H610        H  0.78314561  0.73208657  0.47518252     0.12500
H611        H  0.66973009  0.81825629  0.43237562     0.11200
H612        H  0.65811529  0.81508338  0.51020492     0.12400
H613        H  0.66925069  0.78936236  0.58675485     0.11400
H614        H  0.79216915  0.70934874  0.54144505     0.08500
H615        H  0.80033104  0.68539750  0.61813395     0.11800
H616        H  0.70318637  0.74978165  0.64379610     0.13600
C617        C  0.74550122  0.72348275  0.91695051    -0.01900
C618        C  0.74862064  0.70397206  0.95567446    -0.09900
C619        C  0.73383927  0.71313160  0.99375084    -0.18700
C620        C  0.71466534  0.74223058  0.99399285     0.03700
C621        C  0.71392133  0.76254382  0.95580831     0.17900
C622        C  0.72947406  0.75304475  0.91774682    -0.20100
C623        C  0.69659565  0.79191425  0.95536164    -0.21400
C624        C  0.68089816  0.80177551  0.99251252    -0.19900
C625        C  0.68135191  0.78230920  0.03056918     0.19300
C626        C  0.69688145  0.75199427  0.03111345     0.01400
C627        C  0.69437820  0.73286233  0.06911448    -0.14700
C628        C  0.68186102  0.74420888  0.10753479    -0.12400
C629        C  0.67095972  0.77479588  0.10911259     0.00900
C630        C  0.66828614  0.79335389  0.06920851    -0.24600
H631        H  0.76088674  0.68096929  0.95548743     0.08900
H632        H  0.73732590  0.69673210  0.02206987     0.12500
H633        H  0.72634509  0.76801730  0.88735382     0.11200
H634        H  0.69568758  0.80750377  0.92634067     0.12400
H635        H  0.66870498  0.82485111  0.99169929     0.11400
H636        H  0.70304357  0.70922454  0.07089365     0.08500
H637        H  0.68337634  0.72923848  0.13743627     0.11800
H638        H  0.65900296  0.81696326  0.06956380     0.13600
C639        C  0.04586191  0.73008336  0.26230012    -0.01900
C640        C  0.02967246  0.75642306  0.23509539    -0.09900
C641        C  0.98800827  0.77103591  0.23630107    -0.18700
C642        C  0.96123677  0.75959946  0.26483869     0.03700
C643        C  0.97900616  0.73346073  0.29343149     0.17900
C644        C  0.02054895  0.71924796  0.29196740    -0.20100
C645        C  0.95479712  0.72110287  0.32281915    -0.21400
C646        C  0.91207199  0.73348289  0.32327086    -0.19900
C647        C  0.89244207  0.75855425  0.29432798     0.19300
C648        C  0.91700466  0.77242433  0.26534350     0.01400
C649        C  0.89532339  0.79785643  0.23719893    -0.14700
C650        C  0.85017976  0.80797304  0.23599618    -0.12400
C651        C  0.82525534  0.79327239  0.26297538     0.00900
C652        C  0.84742970  0.76909589  0.29308640    -0.24600
H653        H  0.04887808  0.76553112  0.21245290     0.08900
H654        H  0.97727687  0.79103614  0.21409338     0.12500
H655        H  0.03288140  0.69917237  0.31399822     0.11200
H656        H  0.96855675  0.70128699  0.34499568     0.12400
H657        H  0.89372405  0.72296064  0.34566115     0.11400
H658        H  0.91185212  0.80989944  0.21477722     0.08500
H659        H  0.83402479  0.82678158  0.21246619     0.11800
H660        H  0.82879633  0.75760541  0.31437508     0.13600
C661        C  0.54639718  0.76147101  0.26510748    -0.01900
C662        C  0.52447088  0.77175007  0.29788833    -0.09900
C663        C  0.48205946  0.75944765  0.29959037    -0.18700
C664        C  0.45920535  0.73603280  0.26836642     0.03700
C665        C  0.48145952  0.72505928  0.23545951     0.17900
C666        C  0.52500392  0.73765085  0.23429953    -0.20100
C667        C  0.45950169  0.70202293  0.20341819    -0.21400
C668        C  0.41571034  0.69014251  0.20279862    -0.19900
C669        C  0.39283829  0.70072189  0.23451304     0.19300
C670        C  0.41465944  0.72357939  0.26820052     0.01400
C671        C  0.39059985  0.73329209  0.29991342    -0.14700
C672        C  0.34615148  0.72169724  0.29716133    -0.12400
C673        C  0.32385736  0.69982054  0.26306567     0.00900
C674        C  0.34787578  0.68904034  0.23227470    -0.24600
H675        H  0.53997537  0.78989933  0.32257907     0.08900
H676        H  0.46787675  0.76922329  0.32554976     0.12500
H677        H  0.54143322  0.72947830  0.20876468     0.11200
H678        H  0.47598641  0.69340870  0.17822634     0.12400
H679        H  0.39943912  0.67264203  0.17703491     0.11400
H680        H  0.40479359  0.75015060  0.32713547     0.08500
H681        H  0.32868665  0.73041874  0.32147904     0.11800
H682        H  0.33090088  0.67224528  0.20542900     0.13600
C683        C  0.36588517  0.86270809  0.91193672    -0.01900
C684        C  0.35416390  0.85984416  0.95461449    -0.09900
C685        C  0.38877920  0.86191979  0.00028172    -0.18700
C686        C  0.43710607  0.86711435  0.00547959     0.03700
C687        C  0.44877605  0.87174843  0.96246696     0.17900
C688        C  0.41340805  0.86931133  0.91632428    -0.20100
C689        C  0.49596517  0.87810954  0.96582403    -0.21400
C690        C  0.53187269  0.87921491  0.01064770    -0.19900
C691        C  0.52189100  0.87339007  0.05342474     0.19300
C692        C  0.47435602  0.86732207  0.05164106     0.01400
C693        C  0.46667647  0.86061949  0.09596542    -0.14700
C694        C  0.50481403  0.85896517  0.13971406    -0.12400
C695        C  0.55179729  0.86447837  0.14115789     0.00900
C696        C  0.55963014  0.87243747  0.09777563    -0.24600
H697        H  0.31787557  0.85502238  0.95299359     0.08900
H698        H  0.37661326  0.85906159  0.03085209     0.12500
H699        H  0.42319231  0.87170139  0.88395802     0.11200
H700        H  0.50529682  0.88195797  0.93348155     0.12400
H701        H  0.56808337  0.88388426  0.01174354     0.11400
H702        H  0.43181964  0.85548412  0.09779150     0.08500
H703        H  0.49756974  0.85249595  0.17234865     0.11800
H704        H  0.59575926  0.87641119  0.09796430     0.13600
loop_ 
_geom_bond_atom_site_label_1 
_geom_bond_atom_site_label_2 
_geom_bond_distance 
_geom_bond_site_symmetry_2 
_ccdc_geom_bond_type 
O1           C16   1.268       .  A
O1           Al9   1.913       .  S
C2           O12   1.268       .  A
C2            O3   1.269       .  A
C2          C695   1.494       .  S
O3           Al5   1.922       .  S
O4            C6   1.253       .  A
O4           Al5   1.877       .  S
Al5          O13   1.907       .  S
Al5          O15   1.933       .  S
Al5          O14   1.787       .  S
C6           O19   1.263       .  A
C6          C661   1.490       .  S
O7           C17   1.260       .  A
O7           Al9   1.904       .  S
O8           C21   1.263       .  A
O8          Al18   1.913       .  S
Al9          O22   1.900       .  S
Al9          O19   1.943       .  S
Al9          O14   1.788       .  S
O10          C17   1.255       .  A
O10         Al18   1.882       .  S
O11          C20   1.258       .  A
O11         Al18   1.911       .  S
O12         Al18   1.922       .  S
O13          C20   1.258       .  A
O14         Al18   1.792       .  S
O15          C16   1.275       .  A
C16         C595   1.488       .  S
C17         C629   1.479       .  S
C20         C573   1.490       .  S
C21          O22   1.263       .  A
C21         C651   1.488       .  S
O23          C38   1.260       .  A
O23         Al31   1.873       .  S
C24          O34   1.258       .  A
C24          O25   1.277       .  A
C24         C683   1.498       .  S
O25         Al27   1.974       .  S
O26          C28   1.252       .  A
O26         Al27   1.868       .  S
Al27         O35   1.916       .  S
Al27         O37   1.975       .  S
Al27         O36   1.789       .  S
C28          O41   1.259       .  A
C28         C529   1.485       .  S
O29          C39   1.263       .  A
O29         Al31   1.914       .  S
O30          C43   1.264       .  A
O30         Al40   1.900       .  S
Al31         O44   1.913       .  S
Al31         O41   1.928       .  S
Al31         O36   1.793       .  S
O32          C39   1.257       .  A
O32         Al40   1.886       .  S
O33          C42   1.253       .  A
O33         Al40   1.890       .  S
O34         Al40   1.862       .  S
O35          C42   1.257       .  A
O36         Al40   1.793       .  S
O37          C38   1.278       .  A
C38         C485   1.502       .  S
C39         C507   1.467       .  S
C42         C475   1.489       .  S
C43          O44   1.267       .  A
C43         C563   1.477       .  S
O45          C60   1.266       .  A
O45         Al53   1.908       .  S
C46          O56   1.274       .  A
C46          O47   1.258       .  A
C46         C453   1.500       .  S
O47         Al49   1.872       .  S
O48          C50   1.258       .  A
O48         Al49   1.883       .  S
Al49         O57   1.891       .  S
Al49         O59   1.911       .  S
Al49         O58   1.790       .  S
C50          O63   1.266       .  A
C50         C617   1.467       .  S
O51          C61   1.260       .  A
O51         Al53   1.932       .  S
O52          C65   1.276       .  A
O52         Al62   1.970       .  S
Al53         O66   1.884       .  S
Al53         O63   1.918       .  S
Al53         O58   1.791       .  S
O54          C61   1.251       .  A
O54         Al62   1.866       .  S
O55          C64   1.258       .  A
O55         Al62   1.908       .  S
O56         Al62   1.966       .  S
O57          C64   1.256       .  A
O58         Al62   1.788       .  S
O59          C60   1.265       .  A
C60         C541   1.482       .  S
C61         C551   1.478       .  S
C64         C419   1.484       .  S
C65          O66   1.263       .  A
C65         C607   1.499       .  S
O67          C82   1.262       .  A
O67         Al75   1.894       .  S
C68          O78   1.268       .  A
C68          O69   1.266       .  A
C68         C441   1.498       .  S
O69         Al71   1.923       .  S
O70          C72   1.255       .  A
O70         Al71   1.878       .  S
Al71         O79   1.904       .  S
Al71         O81   1.924       .  S
Al71         O80   1.794       .  S
C72          O85   1.262       .  A
C72         C519   1.478       .  S
O73          C83   1.264       .  A
O73         Al75   1.933       .  S
O74          C87   1.277       .  A
O74         Al84   1.945       .  S
Al75         O88   1.911       .  S
Al75         O85   1.912       .  S
Al75         O80   1.785       .  S
O76          C83   1.255       .  A
O76         Al84   1.881       .  S
O77          C86   1.262       .  A
O77         Al84   1.922       .  S
O78         Al84   1.928       .  S
O79          C86   1.259       .  A
O80         Al84   1.788       .  S
O81          C82   1.264       .  A
C82         C673   1.487       .  S
C83         C639   1.487       .  S
C86         C409   1.490       .  S
C87          O88   1.266       .  A
C87         C497   1.494       .  S
O89         C104   1.267       .  A
O89         Al97   1.910       .  S
C90         O100   1.276       .  A
C90          O91   1.262       .  A
C90         C375   1.496       .  S
O91         Al93   1.878       .  S
O92          C94   1.254       .  A
O92         Al93   1.877       .  S
Al93        O101   1.892       .  S
Al93        O103   1.901       .  S
Al93        O102   1.795       .  S
C94         O107   1.262       .  A
C94         C321   1.474       .  S
O95         C105   1.259       .  A
O95         Al97   1.928       .  S
O96         C109   1.275       .  A
O96        Al106   1.967       .  S
Al97        O110   1.879       .  S
Al97        O107   1.921       .  S
Al97        O102   1.796       .  S
O98         C105   1.252       .  A
O98        Al106   1.862       .  S
O99         C108   1.258       .  A
O99        Al106   1.914       .  S
O100       Al106   1.966       .  S
O101        C108   1.253       .  A
O102       Al106   1.787       .  S
O103        C104   1.266       .  A
C104        C331   1.471       .  S
C105        C365   1.481       .  S
C108        C585   1.488       .  S
C109        O110   1.259       .  A
C109        C287   1.502       .  S
O111        C126   1.265       .  A
O111       Al119   1.907       .  S
C112        O122   1.267       .  A
C112        O113   1.264       .  A
C112        C387   1.494       .  S
O113       Al115   1.917       .  S
O114        C116   1.255       .  A
O114       Al115   1.880       .  S
Al115       O123   1.899       .  S
Al115       O125   1.907       .  S
Al115       O124   1.788       .  S
C116        O129   1.263       .  A
C116        C221   1.480       .  S
O117        C127   1.266       .  A
O117       Al119   1.938       .  S
O118        C131   1.275       .  A
O118       Al128   1.941       .  S
Al119       O132   1.918       .  S
Al119       O129   1.920       .  S
Al119       O124   1.787       .  S
O120        C127   1.257       .  A
O120       Al128   1.883       .  S
O121        C130   1.263       .  A
O121       Al128   1.927       .  S
O122       Al128   1.926       .  S
O123        C130   1.259       .  A
O124       Al128   1.786       .  S
O125        C126   1.262       .  A
C126        C265   1.485       .  S
C127        C243   1.489       .  S
C130        C463   1.490       .  S
C131        O132   1.267       .  A
C131        C211   1.497       .  S
O133        C148   1.269       .  A
O133       Al141   1.920       .  S
C134        O144   1.265       .  A
C134        O135   1.269       .  A
C134        C177   1.494       .  S
O135       Al137   1.932       .  S
O136        C138   1.252       .  A
O136       Al137   1.874       .  S
Al137       O145   1.910       .  S
Al137       O147   1.939       .  S
Al137       O146   1.790       .  S
C138        O151   1.262       .  A
C138        C277   1.485       .  S
O139        C149   1.264       .  A
O139       Al141   1.920       .  S
O140        C153   1.261       .  A
O140       Al150   1.910       .  S
Al141       O154   1.900       .  S
Al141       O151   1.931       .  S
Al141       O146   1.788       .  S
O142        C149   1.254       .  A
O142       Al150   1.870       .  S
O143        C152   1.258       .  A
O143       Al150   1.899       .  S
O144       Al150   1.919       .  S
O145        C152   1.259       .  A
O146       Al150   1.792       .  S
O147        C148   1.276       .  A
C148        C299   1.493       .  S
C149        C309   1.479       .  S
C152        C431   1.483       .  S
C153        O154   1.262       .  A
C153        C255   1.488       .  S
O155        C170   1.263       .  A
O155       Al163   1.878       .  S
C156        O166   1.258       .  A
C156        O157   1.273       .  A
C156        C189   1.496       .  S
O157       Al159   1.964       .  S
O158        C160   1.251       .  A
O158       Al159   1.872       .  S
Al159       O167   1.901       .  S
Al159       O169   1.980       .  S
Al159       O168   1.790       .  S
C160        O173   1.256       .  A
C160        C343   1.473       .  S
O161        C171   1.266       .  A
O161       Al163   1.915       .  S
O162        C175   1.265       .  A
O162       Al172   1.927       .  S
Al163       O176   1.893       .  S
Al163       O173   1.917       .  S
Al163       O168   1.792       .  S
O164        C171   1.262       .  A
O164       Al172   1.899       .  S
O165        C174   1.258       .  A
O165       Al172   1.904       .  S
O166       Al172   1.872       .  S
O167        C174   1.258       .  A
O168       Al172   1.794       .  S
O169        C170   1.278       .  A
C170        C199   1.502       .  S
C171        C233   1.471       .  S
C174        C397   1.489       .  S
C175        O176   1.262       .  A
C175        C353   1.486       .  S
C177        C178   1.401       .  A
C177        C182   1.408       .  A
C178        C179   1.406       .  A
C178        H191   1.083       .  S
C179        C180   1.420       .  A
C179        H192   1.077   1_655  S
C180        C186   1.438   1_656  A
C180        C181   1.420       .  A
C181        C183   1.402   1_556  A
C181        C182   1.409       .  A
C182        H193   1.084       .  S
C183        C184   1.393       .  A
C183        H194   1.084       .  S
C184        C185   1.400       .  A
C184        H195   1.084       .  S
C185        C186   1.426   1_655  A
C185        C190   1.416   1_655  A
C186        C187   1.412       .  A
C187        C188   1.399       .  A
C187        H196   1.077   1_554  S
C188        C189   1.407       .  A
C188        H197   1.083       .  S
C189        C190   1.404       .  A
C190        H198   1.084       .  S
C199        C200   1.408       .  A
C199        C204   1.406       .  A
C200        C201   1.398       .  A
C200        H213   1.083       .  S
C201        C202   1.410       .  A
C201        H214   1.078       .  S
C202        C208   1.440       .  A
C202        C203   1.427       .  A
C203        C205   1.400       .  A
C203        C204   1.420       .  A
C204        H215   1.085       .  S
C205        C206   1.395       .  A
C205        H216   1.085       .  S
C206        C207   1.403       .  A
C206        H217   1.083       .  S
C207        C208   1.419       .  A
C207        C212   1.412       .  A
C208        C209   1.421       .  A
C209        C210   1.407       .  A
C209        H218   1.077       .  S
C210        C211   1.401       .  A
C210        H219   1.083       .  S
C211        C212   1.409       .  A
C212        H220   1.084       .  S
C221        C222   1.404       .  A
C221        C226   1.400       .  A
C222        C223   1.397       .  A
C222        H235   1.083       .  S
C223        C224   1.413       .  A
C223        H236   1.080   1_556  S
C224        C230   1.430   1_556  A
C224        C225   1.424       .  A
C225        C227   1.398       .  A
C225        C226   1.404       .  A
C226        H237   1.085       .  S
C227        C228   1.388       .  A
C227        H238   1.085       .  S
C228        C229   1.399   1_556  A
C228        H239   1.083       .  S
C229        C230   1.421       .  A
C229        C234   1.400       .  A
C230        C231   1.418       .  A
C231        C232   1.401       .  A
C231        H240   1.078       .  S
C232        C233   1.398       .  A
C232        H241   1.083       .  S
C233        C234   1.400       .  A
C234        H242   1.085       .  S
C243        C244   1.401       .  A
C243        C248   1.405       .  A
C244        C245   1.409       .  A
C244        H257   1.083       .  S
C245        C246   1.421       .  A
C245        H258   1.076       .  S
C246        C252   1.436       .  A
C246        C247   1.420       .  A
C247        C249   1.399       .  A
C247        C248   1.398       .  A
C248        H259   1.084       .  S
C249        C250   1.385       .  A
C249        H260   1.084       .  S
C250        C251   1.397       .  A
C250        H261   1.084       .  S
C251        C252   1.424       .  A
C251        C256   1.404       .  A
C252        C253   1.415       .  A
C253        C254   1.404       .  A
C253        H262   1.077       .  S
C254        C255   1.405       .  A
C254        H263   1.083       .  S
C255        C256   1.400       .  A
C256        H264   1.084       .  S
C265        C266   1.404       .  A
C265        C270   1.400       .  A
C266        C267   1.398       .  A
C266        H279   1.083       .  S
C267        C268   1.413       .  A
C267        H280   1.078       .  S
C268        C274   1.433       .  A
C268        C269   1.425       .  A
C269        C271   1.398       .  A
C269        C270   1.406       .  A
C270        H281   1.084       .  S
C271        C272   1.387       .  A
C271        H282   1.084       .  S
C272        C273   1.400   1_455  A
C272        H283   1.084   1_455  S
C273        C274   1.419   1_655  A
C273        C278   1.399       .  A
C274        C275   1.420   1_455  A
C275        C276   1.404       .  A
C275        H284   1.079       .  S
C276        C277   1.399       .  A
C276        H285   1.083       .  S
C277        C278   1.406       .  A
C278        H286   1.085       .  S
C287        C288   1.403       .  A
C287        C292   1.410       .  A
C288        C289   1.409       .  A
C288        H301   1.083       .  S
C289        C290   1.421       .  A
C289        H302   1.078       .  S
C290        C296   1.442       .  A
C290        C291   1.420       .  A
C291        C293   1.402       .  A
C291        C292   1.410       .  A
C292        H303   1.084       .  S
C293        C294   1.393       .  A
C293        H304   1.083       .  S
C294        C295   1.399       .  A
C294        H305   1.085       .  S
C295        C296   1.427       .  A
C295        C300   1.416       .  A
C296        C297   1.414       .  A
C297        C298   1.403       .  A
C297        H306   1.079       .  S
C298        C299   1.405       .  A
C298        H307   1.083       .  S
C299        C300   1.403       .  A
C300        H308   1.085       .  S
C309        C310   1.404       .  A
C309        C314   1.399       .  A
C310        C311   1.394       .  A
C310        H323   1.084       .  S
C311        C312   1.411       .  A
C311        H324   1.076   1_556  S
C312        C318   1.428   1_556  A
C312        C313   1.424       .  A
C313        C315   1.398       .  A
C313        C314   1.404       .  A
C314        H325   1.084       .  S
C315        C316   1.388   1_556  A
C315        H326   1.084       .  S
C316        C317   1.400       .  A
C316        H327   1.084       .  S
C317        C318   1.419       .  A
C317        C322   1.397       .  A
C318        C319   1.420       .  A
C319        C320   1.401       .  A
C319        H328   1.076       .  S
C320        C321   1.397       .  A
C320        H329   1.083       .  S
C321        C322   1.403       .  A
C322        H330   1.085       .  S
C331        C332   1.398       .  A
C331        C336   1.402       .  A
C332        C333   1.390       .  A
C332        H345   1.084       .  S
C333        C334   1.413       .  A
C333        H346   1.080       .  S
C334        C340   1.425       .  A
C334        C335   1.421       .  A
C335        C337   1.401       .  A
C335        C336   1.407       .  A
C336        H347   1.085       .  S
C337        C338   1.394       .  A
C337        H348   1.085       .  S
C338        C339   1.401   1_655  A
C338        H349   1.083   1_655  S
C339        C340   1.423   1_455  A
C339        C344   1.410       .  A
C340        C341   1.411       .  A
C341        C342   1.388   1_655  A
C341        H350   1.078       .  S
C342        C343   1.400       .  A
C342        H351   1.084       .  S
C343        C344   1.401       .  A
C344        H352   1.084       .  S
C353        C354   1.404       .  A
C353        C358   1.407       .  A
C354        C355   1.384       .  A
C354        H367   1.083       .  S
C355        C356   1.407       .  A
C355        H368   1.080       .  S
C356        C362   1.424       .  A
C356        C357   1.422       .  A
C357        C359   1.403       .  A
C357        C358   1.418       .  A
C358        H369   1.084       .  S
C359        C360   1.400       .  A
C359        H370   1.084       .  S
C360        C361   1.404       .  A
C360        H371   1.084       .  S
C361        C362   1.420       .  A
C361        C366   1.415       .  A
C362        C363   1.410       .  A
C363        C364   1.387       .  A
C363        H372   1.080       .  S
C364        C365   1.400       .  A
C364        H373   1.084       .  S
C365        C366   1.408       .  A
C366        H374   1.084       .  S
C375        C376   1.406       .  A
C375        C380   1.405       .  A
C376        C377   1.399       .  A
C376        H389   1.084       .  S
C377        C378   1.413       .  A
C377        H390   1.077   1_554  S
C378        C384   1.438   1_554  A
C378        C379   1.425       .  A
C379        C381   1.400       .  A
C379        C380   1.416       .  A
C380        H391   1.084       .  S
C381        C382   1.394       .  A
C381        H392   1.084       .  S
C382        C383   1.402   1_554  A
C382        H393   1.084       .  S
C383        C384   1.421       .  A
C383        C388   1.410       .  A
C384        C385   1.419       .  A
C385        C386   1.405       .  A
C385        H394   1.078       .  S
C386        C387   1.401       .  A
C386        H395   1.083       .  S
C387        C388   1.408       .  A
C388        H396   1.085       .  S
C397        C398   1.403       .  A
C397        C402   1.404       .  A
C398        C399   1.401       .  A
C398        H411   1.083       .  S
C399        C400   1.416       .  A
C399        H412   1.079       .  S
C400        C406   1.435       .  A
C400        C401   1.422       .  A
C401        C403   1.400       .  A
C401        C402   1.407       .  A
C402        H413   1.085       .  S
C403        C404   1.390       .  A
C403        H414   1.084       .  S
C404        C405   1.400       .  A
C404        H415   1.084       .  S
C405        C406   1.423       .  A
C405        C410   1.409       .  A
C406        C407   1.415       .  A
C407        C408   1.401       .  A
C407        H416   1.079       .  S
C408        C409   1.403       .  A
C408        H417   1.083       .  S
C409        C410   1.404       .  A
C410        H418   1.085       .  S
C419        C420   1.401       .  A
C419        C424   1.403       .  A
C420        C421   1.401       .  A
C420        H433   1.083       .  S
C421        C422   1.418       .  A
C421        H434   1.077       .  S
C422        C428   1.432       .  A
C422        C423   1.421       .  A
C423        C425   1.399       .  A
C423        C424   1.403       .  A
C424        H435   1.085       .  S
C425        C426   1.389       .  A
C425        H436   1.084       .  S
C426        C427   1.399       .  A
C426        H437   1.084       .  S
C427        C428   1.424       .  A
C427        C432   1.406       .  A
C428        C429   1.414       .  A
C429        C430   1.398       .  A
C429        H438   1.077       .  S
C430        C431   1.402       .  A
C430        H439   1.083       .  S
C431        C432   1.402       .  A
C432        H440   1.084       .  S
C441        C442   1.403       .  A
C441        C446   1.408       .  A
C442        C443   1.406   1_455  A
C442        H455   1.083   1_455  S
C443        C444   1.419       .  A
C443        H456   1.079       .  S
C444        C450   1.439       .  A
C444        C445   1.420   1_655  A
C445        C447   1.402       .  A
C445        C446   1.411       .  A
C446        H457   1.085       .  S
C447        C448   1.394   1_554  A
C447        H458   1.084       .  S
C448        C449   1.400   1_455  A
C448        H459   1.084       .  S
C449        C450   1.426   1_556  A
C449        C454   1.418       .  A
C450        C451   1.411       .  A
C451        C452   1.398   1_554  A
C451        H460   1.078       .  S
C452        C453   1.408       .  A
C452        H461   1.083       .  S
C453        C454   1.405       .  A
C454        H462   1.084       .  S
C463        C464   1.403       .  A
C463        C468   1.405       .  A
C464        C465   1.399       .  A
C464        H477   1.083       .  S
C465        C466   1.415       .  A
C465        H478   1.077       .  S
C466        C472   1.434   1_545  A
C466        C467   1.422       .  A
C467        C469   1.400       .  A
C467        C468   1.409       .  A
C468        H479   1.084       .  S
C469        C470   1.392   1_545  A
C469        H480   1.084       .  S
C470        C471   1.400       .  A
C470        H481   1.084       .  S
C471        C472   1.424       .  A
C471        C476   1.411       .  A
C472        C473   1.414       .  A
C473        C474   1.398       .  A
C473        H482   1.077       .  S
C474        C475   1.404       .  A
C474        H483   1.083       .  S
C475        C476   1.403       .  A
C476        H484   1.084       .  S
C485        C486   1.403       .  A
C485        C490   1.411       .  A
C486        C487   1.411       .  A
C486        H499   1.083       .  S
C487        C488   1.422       .  A
C487        H500   1.078       .  S
C488        C494   1.442       .  A
C488        C489   1.419       .  A
C489        C491   1.402       .  A
C489        C490   1.408       .  A
C490        H501   1.084       .  S
C491        C492   1.392       .  A
C491        H502   1.083       .  S
C492        C493   1.399       .  A
C492        H503   1.085       .  S
C493        C494   1.428       .  A
C493        C498   1.416       .  A
C494        C495   1.413       .  A
C495        C496   1.402       .  A
C495        H504   1.079       .  S
C496        C497   1.406       .  A
C496        H505   1.084       .  S
C497        C498   1.402       .  A
C498        H506   1.085       .  S
C507        C508   1.397       .  A
C507        C512   1.398       .  A
C508        C509   1.400       .  A
C508        H521   1.083       .  S
C509        C510   1.418       .  A
C509        H522   1.079       .  S
C510        C516   1.429   1_556  A
C510        C511   1.421       .  A
C511        C513   1.398   1_556  A
C511        C512   1.398       .  A
C512        H523   1.087       .  S
C513        C514   1.387       .  A
C513        H524   1.085       .  S
C514        C515   1.398       .  A
C514        H525   1.084       .  S
C515        C516   1.423       .  A
C515        C520   1.402       .  A
C516        C517   1.413       .  A
C517        C518   1.396       .  A
C517        H526   1.079   1_554  S
C518        C519   1.403       .  A
C518        H527   1.084       .  S
C519        C520   1.400       .  A
C520        H528   1.085       .  S
C529        C530   1.403       .  A
C529        C534   1.401       .  A
C530        C531   1.408       .  A
C530        H543   1.083       .  S
C531        C532   1.419       .  A
C531        H544   1.079       .  S
C532        C538   1.435       .  A
C532        C533   1.422       .  A
C533        C535   1.397       .  A
C533        C534   1.397       .  A
C534        H545   1.085       .  S
C535        C536   1.382       .  A
C535        H546   1.084       .  S
C536        C537   1.396       .  A
C536        H547   1.086       .  S
C537        C538   1.423       .  A
C537        C542   1.397       .  A
C538        C539   1.418       .  A
C539        C540   1.407       .  A
C539        H548   1.081       .  S
C540        C541   1.404       .  A
C540        H549   1.082       .  S
C541        C542   1.398       .  A
C542        H550   1.087       .  S
C551        C552   1.400       .  A
C551        C556   1.400       .  A
C552        C553   1.405       .  A
C552        H565   1.083       .  S
C553        C554   1.419       .  A
C553        H566   1.079       .  S
C554        C560   1.432   1_655  A
C554        C555   1.421       .  A
C555        C557   1.398       .  A
C555        C556   1.395       .  A
C556        H567   1.085       .  S
C557        C558   1.383   1_655  A
C557        H568   1.084       .  S
C558        C559   1.396       .  A
C558        H569   1.085       .  S
C559        C560   1.424       .  A
C559        C564   1.397       .  A
C560        C561   1.416       .  A
C561        C562   1.402       .  A
C561        H570   1.081       .  S
C562        C563   1.403       .  A
C562        H571   1.083       .  S
C563        C564   1.397       .  A
C564        H572   1.087       .  S
C573        C574   1.404       .  A
C573        C578   1.404       .  A
C574        C575   1.397       .  A
C574        H587   1.083       .  S
C575        C576   1.413       .  A
C575        H588   1.079       .  S
C576        C582   1.434   1_565  A
C576        C577   1.424       .  A
C577        C579   1.400       .  A
C577        C578   1.411       .  A
C578        H589   1.085       .  S
C579        C580   1.392   1_565  A
C579        H590   1.084       .  S
C580        C581   1.401       .  A
C580        H591   1.084       .  S
C581        C582   1.421       .  A
C581        C586   1.408       .  A
C582        C583   1.416       .  A
C583        C584   1.400       .  A
C583        H592   1.079       .  S
C584        C585   1.400       .  A
C584        H593   1.083       .  S
C585        C586   1.406       .  A
C586        H594   1.085       .  S
C595        C596   1.405       .  A
C595        C600   1.400       .  A
C596        C597   1.401       .  A
C596        H609   1.083       .  S
C597        C598   1.413       .  A
C597        H610   1.080       .  S
C598        C604   1.439       .  A
C598        C599   1.427       .  A
C599        C601   1.398       .  A
C599        C600   1.412       .  A
C600        H611   1.086       .  S
C601        C602   1.391       .  A
C601        H612   1.085       .  S
C602        C603   1.402       .  A
C602        H613   1.083       .  S
C603        C604   1.420       .  A
C603        C608   1.408       .  A
C604        C605   1.420       .  A
C605        C606   1.408       .  A
C605        H614   1.078       .  S
C606        C607   1.403       .  A
C606        H615   1.083       .  S
C607        C608   1.409       .  A
C608        H616   1.084       .  S
C617        C618   1.399       .  A
C617        C622   1.398       .  A
C618        C619   1.390       .  A
C618        H631   1.084       .  S
C619        C620   1.412       .  A
C619        H632   1.077   1_556  S
C620        C626   1.427   1_556  A
C620        C621   1.425       .  A
C621        C623   1.399       .  A
C621        C622   1.408       .  A
C622        H633   1.085       .  S
C623        C624   1.391       .  A
C623        H634   1.085       .  S
C624        C625   1.401   1_556  A
C624        H635   1.083       .  S
C625        C626   1.420       .  A
C625        C630   1.404       .  A
C626        C627   1.415       .  A
C627        C628   1.394       .  A
C627        H636   1.076       .  S
C628        C629   1.400       .  A
C628        H637   1.084       .  S
C629        C630   1.404       .  A
C630        H638   1.084       .  S
C639        C640   1.401       .  A
C639        C644   1.405       .  A
C640        C641   1.407   1_455  A
C640        H653   1.083       .  S
C641        C642   1.420       .  A
C641        H654   1.079       .  S
C642        C648   1.435       .  A
C642        C643   1.420       .  A
C643        C645   1.399       .  A
C643        C644   1.398   1_655  A
C644        H655   1.085       .  S
C645        C646   1.386       .  A
C645        H656   1.085       .  S
C646        C647   1.397       .  A
C646        H657   1.084       .  S
C647        C648   1.424       .  A
C647        C652   1.404       .  A
C648        C649   1.414       .  A
C649        C650   1.402       .  A
C649        H658   1.079       .  S
C650        C651   1.405       .  A
C650        H659   1.083       .  S
C651        C652   1.401       .  A
C652        H660   1.084       .  S
C661        C662   1.405       .  A
C661        C666   1.405       .  A
C662        C663   1.387       .  A
C662        H675   1.084       .  S
C663        C664   1.408       .  A
C663        H676   1.077       .  S
C664        C670   1.431       .  A
C664        C665   1.425       .  A
C665        C667   1.401       .  A
C665        C666   1.418       .  A
C666        H677   1.084       .  S
C667        C668   1.397       .  A
C667        H678   1.083       .  S
C668        C669   1.403       .  A
C668        H679   1.084       .  S
C669        C670   1.421       .  A
C669        C674   1.413       .  A
C670        C671   1.415       .  A
C671        C672   1.393       .  A
C671        H680   1.078       .  S
C672        C673   1.400       .  A
C672        H681   1.084       .  S
C673        C674   1.408       .  A
C674        H682   1.085       .  S
C683        C684   1.409       .  A
C683        C688   1.404       .  A
C684        C685   1.397   1_556  A
C684        H697   1.083       .  S
C685        C686   1.410       .  A
C685        H698   1.077       .  S
C686        C692   1.437       .  A
C686        C687   1.426   1_554  A
C687        C689   1.400       .  A
C687        C688   1.417       .  A
C688        H699   1.084       .  S
C689        C690   1.393   1_556  A
C689        H700   1.083       .  S
C690        C691   1.401       .  A
C690        H701   1.084       .  S
C691        C692   1.420       .  A
C691        C696   1.409       .  A
C692        C693   1.419       .  A
C693        C694   1.404       .  A
C693        H702   1.077       .  S
C694        C695   1.402       .  A
C694        H703   1.083       .  S
C695        C696   1.407       .  A
C696        H704   1.085       .  S
