geometry optimzed in LAMMPS
_audit_creation_date              2020-12-01 
_audit_creation_method            'lammps2cif' 
_symmetry_space_group_name_H-M    'P1' 
_symmetry_Int_Tables_number       1 
_symmetry_cell_setting            triclinic 
loop_ 
_symmetry_equiv_pos_as_xyz 
  x,y,z 
_cell_length_a                    34.24933702 
_cell_length_b                    30.500929282024003 
_cell_length_c                    72.90008537079288 
_cell_angle_alpha                 90.0049922839893 
_cell_angle_beta                  89.99693860127188 
_cell_angle_gamma                 89.99933993516002 
loop_ 
_atom_site_label 
_atom_site_type_symbol 
_atom_site_fract_x 
_atom_site_fract_y 
_atom_site_fract_z 
_atom_site_charge 
Fe1        Fe  0.97837125  0.23469057  0.44384150     1.65800
Fe2        Fe  0.95111061  0.12825554  0.44391215     1.73200
Fe3        Fe  0.93853906  0.18992368  0.48225486     1.54400
O4          O  0.99067088  0.21665125  0.49074314    -0.80100
O5          O  0.90003826  0.11001597  0.45738376    -0.78400
O6          O  0.00709081  0.25881294  0.46696465    -0.82600
O7          O  0.93119483  0.27339531  0.44972161    -0.77500
O8          O  0.95928832  0.12788084  0.48925743    -0.79200
O9          O  0.91858222  0.15638741  0.42337748    -0.82000
C10         C  0.91378148  0.27918365  0.46486030     0.98800
C11         C  0.01019451  0.24763456  0.48369998     1.06200
O12         O  0.95585441  0.18444299  0.45675044    -1.11000
O13         O  0.00297933  0.13559900  0.42919283    -0.73400
O14         O  0.02806073  0.19984855  0.43757162    -0.76900
O15         O  0.91570617  0.25249327  0.47824048    -0.77600
C16         C  0.03153454  0.16191441  0.43072744     0.97700
O17         O  0.95136913  0.21873768  0.41889729    -0.75500
O18         O  0.98260966  0.09683020  0.46367719    -0.80700
C19         C  0.87760905  0.12697087  0.46929023     1.00300
C20         C  0.97699829  0.09719973  0.48083479     1.06200
O21         O  0.88443628  0.16368185  0.47673642    -0.76400
C22         C  0.92585841  0.19056667  0.41410876     1.04500
Fe23       Fe  0.76703421  0.23461619  0.30754429     1.65800
Fe24       Fe  0.79424945  0.12818738  0.30749275     1.73200
Fe25       Fe  0.80686461  0.18978976  0.26914460     1.54400
O26         O  0.75473999  0.21650662  0.26064504    -0.80100
O27         O  0.84527934  0.10986637  0.29400498    -0.78400
O28         O  0.73833524  0.25872251  0.28441257    -0.82600
O29         O  0.81423083  0.27327973  0.30166838    -0.77500
O30         O  0.78609599  0.12773417  0.26215955    -0.79200
O31         O  0.82684209  0.15632928  0.32800227    -0.82000
C32         C  0.83164408  0.27905891  0.28653010     0.98800
C33         C  0.73522115  0.24750655  0.26768081     1.06200
O34         O  0.78953504  0.18435328  0.29464544    -1.11000
O35         O  0.74241956  0.13560749  0.32223801    -0.73400
O36         O  0.71732730  0.19980515  0.31380776    -0.76900
O37         O  0.82970655  0.25236803  0.27314777    -0.77600
C38         C  0.71385629  0.16190364  0.32067993     0.97700
O39         O  0.79402923  0.21866274  0.33249176    -0.75500
O40         O  0.76267978  0.09679582  0.28774310    -0.80700
C41         C  0.86774220  0.12682039  0.28211440     1.00300
C42         C  0.76831745  0.09711195  0.27058711     1.06200
O43         O  0.86095789  0.16355464  0.27468329    -0.76400
C44         C  0.81956741  0.19051269  0.33727130     1.04500
Fe45       Fe  0.51702247  0.76979161  0.05765977     1.65800
Fe46       Fe  0.54419446  0.87626520  0.05753728     1.73200
Fe47       Fe  0.55674170  0.81451971  0.01920831     1.54400
O48         O  0.57965676  0.75199390  0.02323638    -0.80100
O49         O  0.51264053  0.90761305  0.03776922    -0.78400
O50         O  0.56419619  0.73109599  0.05175941    -0.82600
O51         O  0.48824101  0.74560675  0.03456236    -0.77500
O52         O  0.61082580  0.84087057  0.02468492    -0.79200
O53         O  0.49235957  0.86891783  0.07227459    -0.82000
C54         C  0.48511599  0.75672190  0.01782013     0.98800
C55         C  0.58159475  0.72530573  0.03661688     1.06200
O56         O  0.53947588  0.82003720  0.04472146    -1.11000
O57         O  0.57676971  0.84822849  0.07808049    -0.73400
O58         O  0.54409584  0.78581106  0.08258219    -0.76900
O59         O  0.50462857  0.78768203  0.01075206    -0.77600
C60         C  0.56955966  0.81404781  0.08736029     0.97700
O61         O  0.46732718  0.80460356  0.06395204    -0.75500
O62         O  0.59523277  0.89452189  0.04404734    -0.80700
C63         C  0.51818404  0.90718980  0.02060711     1.00300
C64         C  0.61764872  0.87758224  0.03213239     1.06200
O65         O  0.53589338  0.87650485  0.01218746    -0.76400
C66         C  0.46383048  0.84256072  0.07077100     1.04500
Fe67       Fe  0.72845167  0.76995074  0.19390817     1.65800
Fe68       Fe  0.70133332  0.87641409  0.19399183     1.73200
Fe69       Fe  0.68883550  0.81480538  0.23235072     1.54400
O70         O  0.66592919  0.75224710  0.22836439    -0.80100
O71         O  0.73298850  0.90777548  0.21372072    -0.78400
O72         O  0.68123702  0.73134745  0.19982177    -0.82600
O73         O  0.75721244  0.74577851  0.21701403    -0.77500
O74         O  0.63473944  0.84111174  0.22687050    -0.79200
O75         O  0.75311108  0.86895382  0.17921583    -0.82000
C76         C  0.76041406  0.75698512  0.23374351     0.98800
C77         C  0.66390988  0.72556306  0.21498182     1.06200
O78         O  0.70605031  0.82023555  0.20683136    -1.11000
O79         O  0.66866086  0.84833136  0.17349404    -0.73400
O80         O  0.70138701  0.78595317  0.16898075    -0.76900
O81         O  0.74097543  0.78802659  0.24079592    -0.77600
C82         C  0.67587833  0.81414987  0.16421405     0.97700
O83         O  0.77816806  0.80470876  0.18760974    -0.75500
O84         O  0.65035191  0.89475343  0.20751140    -0.80700
C85         C  0.72744728  0.90744243  0.23088316     1.00300
C86         C  0.62792622  0.87782230  0.21942309     1.06200
O87         O  0.70969054  0.87682865  0.23932523    -0.76400
C88         C  0.78165286  0.84262182  0.18074945     1.04500
Fe89       Fe  0.26701136  0.23472587  0.80759205     1.65800
Fe90       Fe  0.29416758  0.12825707  0.80752272     1.73200
Fe91       Fe  0.30679877  0.18988838  0.76917659     1.54400
O92         O  0.25468636  0.21664706  0.76068746    -0.80100
O93         O  0.34522327  0.10995507  0.79404893    -0.78400
O94         O  0.23827102  0.25881693  0.78446908    -0.82600
O95         O  0.31419306  0.27339520  0.80169227    -0.77500
O96         O  0.28600055  0.12785948  0.76217848    -0.79200
O97         O  0.32672600  0.15634488  0.82806130    -0.82000
C98         C  0.33160128  0.27916156  0.78655192     0.98800
C99         C  0.23515963  0.24762615  0.76773412     1.06200
O100        O  0.28948097  0.18444650  0.79468390    -1.11000
O101        O  0.24230924  0.13565670  0.82224426    -0.73400
O102        O  0.21729915  0.19994683  0.81388194    -0.76900
O103        O  0.32967202  0.25245078  0.77317689    -0.77600
C104        C  0.21378356  0.16201341  0.82071799     0.97700
O105        O  0.29405648  0.21878139  0.83253255    -0.75500
O106        O  0.26262564  0.09687686  0.78775898    -0.80700
C107        C  0.36767556  0.12688986  0.78214809     1.00300
C108        C  0.26823817  0.09722224  0.77060190     1.06200
O109        O  0.36088014  0.16360516  0.77470178    -0.76400
C110        C  0.31951720  0.19055379  0.83732596     1.04500
Fe111      Fe  0.47850904  0.23427460  0.94387392     1.65800
Fe112      Fe  0.45131736  0.12782991  0.94391240     1.73200
Fe113      Fe  0.43877378  0.18940436  0.98228664     1.54400
O114        O  0.49089575  0.21615755  0.99076662    -0.80100
O115        O  0.40029056  0.10950868  0.95740109    -0.78400
O116        O  0.50725800  0.25836751  0.96699494    -0.82600
O117        O  0.43132731  0.27292358  0.94978527    -0.77500
O118        O  0.45960808  0.12737355  0.98925504    -0.79200
O119        O  0.41870901  0.15597884  0.92340479    -0.82000
C120        C  0.41393747  0.27868395  0.96493080     0.98800
C121        C  0.51039674  0.24715882  0.98372525     1.06200
O122        O  0.45604402  0.18399031  0.95677261    -1.11000
O123        O  0.50314651  0.13525437  0.92916858    -0.73400
O124        O  0.52820902  0.19948536  0.93757917    -0.76900
O125        O  0.41588637  0.25197192  0.97830403    -0.77600
C126        C  0.53169571  0.16157272  0.93071752     0.97700
O127        O  0.45145638  0.21835758  0.91893323    -0.75500
O128        O  0.48289902  0.09640672  0.96364989    -0.80700
C129        C  0.37786311  0.12642632  0.96931728     1.00300
C130        C  0.47735311  0.09674814  0.98081243     1.06200
O131        O  0.38468311  0.16312015  0.97677948    -0.76400
C132        C  0.42593620  0.19019108  0.91414761     1.04500
Fe133      Fe  0.22847149  0.77009578  0.69386748     1.65800
Fe134      Fe  0.20136235  0.87658324  0.69395118     1.73200
Fe135      Fe  0.18879050  0.81494971  0.73230490     1.54400
O136        O  0.16586050  0.75240837  0.72830976    -0.80100
O137        O  0.23296008  0.90794428  0.71370122    -0.78400
O138        O  0.18128988  0.73144592  0.69979004    -0.82600
O139        O  0.25725379  0.74596868  0.71697439    -0.77500
O140        O  0.13471503  0.84130278  0.72681423    -0.79200
O141        O  0.25317991  0.86915683  0.67920619    -0.82000
C142        C  0.26039250  0.75713104  0.73371170     0.98800
C143        C  0.16391034  0.72568720  0.71493841     1.06200
O144        O  0.20605095  0.82038652  0.70678811    -1.11000
O145        O  0.16874975  0.84852228  0.67342448    -0.73400
O146        O  0.20137709  0.78606348  0.66894071    -0.76900
O147        O  0.24089751  0.78812176  0.74076942    -0.77600
C148        C  0.17592485  0.81430979  0.66415630     0.97700
O149        O  0.27818252  0.80485348  0.68755578    -0.75500
O150        O  0.15034490  0.89491580  0.70744378    -0.80700
C151        C  0.22741279  0.90758375  0.73086301     1.00300
C152        C  0.12791276  0.87800688  0.71935853     1.06200
O153        O  0.20966403  0.87695129  0.73929607    -0.76400
C154        C  0.28169764  0.84278828  0.68072102     1.04500
Fe155      Fe  0.01688990  0.77022579  0.55764139     1.65800
Fe156      Fe  0.04400342  0.87669858  0.55753989     1.73200
Fe157      Fe  0.05650868  0.81502932  0.51918871     1.54400
O158        O  0.07943789  0.75248636  0.52318773    -0.80100
O159        O  0.01235919  0.90803603  0.53780012    -0.78400
O160        O  0.06408427  0.73159440  0.55172460    -0.82600
O161        O  0.98810680  0.74604025  0.53454356    -0.77500
O162        O  0.11059437  0.84137743  0.52465815    -0.79200
O163        O  0.99221362  0.86927251  0.57230769    -0.82000
C164        C  0.98492511  0.75720303  0.51780916     0.98800
C165        C  0.08142494  0.72579919  0.53656853     1.06200
O166        O  0.03929319  0.82049580  0.54470920    -1.11000
O167        O  0.07666387  0.84864779  0.57805243    -0.73400
O168        O  0.04398288  0.78624079  0.58256316    -0.76900
O169        O  0.00438602  0.78820867  0.51074650    -0.77600
C170        C  0.06947512  0.81445797  0.58733064     0.97700
O171        O  0.96717951  0.80499366  0.56394204    -0.75500
O172        O  0.09499412  0.89501774  0.54402485    -0.80700
C173        C  0.01785815  0.90764838  0.52063465     1.00300
C174        C  0.11741318  0.87808529  0.53210931     1.06200
O175        O  0.03561398  0.87702089  0.51219870    -0.76400
C176        C  0.96368055  0.84292690  0.57078291     1.04500
Fe177      Fe  0.22844221  0.98431399  0.05756701     1.65800
Fe178      Fe  0.20139285  0.87782556  0.05750548     1.73200
Fe179      Fe  0.18876109  0.93941163  0.01914685     1.54400
O180        O  0.16580142  0.00194803  0.02313804    -0.80100
O181        O  0.23303928  0.84649591  0.03776273    -0.78400
O182        O  0.18122359  0.02290946  0.05165797    -0.82600
O183        O  0.25718277  0.00845308  0.03444963    -0.77500
O184        O  0.13470323  0.91304113  0.02465753    -0.79200
O185        O  0.25318630  0.88532421  0.07225991    -0.82000
C186        C  0.26032937  0.99726293  0.01771576     0.98800
C187        C  0.16383378  0.02865992  0.03651297     1.06200
O188        O  0.20604178  0.93400724  0.04465870    -1.11000
O189        O  0.16873751  0.90588593  0.07801755    -0.73400
O190        O  0.20138421  0.96833035  0.08250115    -0.76900
O191        O  0.24084965  0.96625080  0.01066780    -0.77600
C192        C  0.17591501  0.94010070  0.08728323     0.97700
O193        O  0.27818073  0.94959520  0.06386449    -0.75500
O194        O  0.15040058  0.85942763  0.04401392    -0.80700
C195        C  0.22748469  0.84683086  0.02060147     1.00300
C196        C  0.12793289  0.87633219  0.03211470     1.06200
O197        O  0.20967503  0.87741604  0.01216622    -0.76400
C198        C  0.28170237  0.91168733  0.07072411     1.04500
Fe199      Fe  0.01700465  0.98450021  0.19383690     1.65800
Fe200      Fe  0.04412505  0.87800447  0.19395235     1.73200
Fe201      Fe  0.05678005  0.93975292  0.23227437     1.54400
O202        O  0.07973219  0.00226506  0.22823969    -0.80100
O203        O  0.01257355  0.84669760  0.21373446    -0.78400
O204        O  0.06417020  0.02320367  0.19973549    -0.82600
O205        O  0.98822571  0.00865277  0.21694077    -0.77500
O206        O  0.11083558  0.91335363  0.22677430    -0.79200
O207        O  0.99227977  0.88537163  0.17922963    -0.82000
C208        C  0.98515008  0.99755646  0.23368736     0.98800
C209        C  0.08162059  0.02897466  0.21486462     1.06200
O210        O  0.03945992  0.93424361  0.20676774    -1.11000
O211        O  0.07668745  0.90601088  0.17339461    -0.73400
O212        O  0.04409035  0.96849143  0.16891334    -0.76900
O213        O  0.00470649  0.96663301  0.24075487    -0.77600
C214        C  0.06951863  0.94021977  0.16412513     0.97700
O215        O  0.96729701  0.94971665  0.18754029    -0.75500
O216        O  0.09517244  0.85970773  0.20742343    -0.80700
C217        C  0.01812692  0.84713142  0.23089558     1.00300
C218        C  0.11762429  0.87663643  0.21932472     1.06200
O219        O  0.03588718  0.87779235  0.23930589    -0.76400
C220        C  0.96377276  0.91175980  0.18072581     1.04500
Fe221      Fe  0.97855616  0.52004806  0.30766657     1.65800
Fe222      Fe  0.95134019  0.62649365  0.30760152     1.73200
Fe223      Fe  0.93885970  0.56487528  0.26923783     1.54400
O224        O  0.99101405  0.53815846  0.26077587    -0.80100
O225        O  0.90031087  0.64476730  0.29410163    -0.78400
O226        O  0.00733390  0.49594362  0.28455247    -0.82600
O227        O  0.93139000  0.48137330  0.30174995    -0.77500
O228        O  0.95963960  0.62692263  0.26226217    -0.79200
O229        O  0.91873956  0.59836404  0.32811613    -0.82000
C230        C  0.91404495  0.47558864  0.28659506     0.98800
C231        C  0.01049780  0.50714951  0.26782234     1.06200
O232        O  0.95609550  0.57031810  0.29475492    -1.11000
O233        O  0.00316830  0.61911053  0.32234701    -0.73400
O234        O  0.02824025  0.55485819  0.31396581    -0.76900
O235        O  0.91601562  0.50229274  0.27322035    -0.77600
C236        C  0.03171922  0.59278827  0.32081168     0.97700
O237        O  0.95147723  0.53598390  0.33260177    -0.75500
O238        O  0.98291529  0.65791660  0.28786155    -0.80700
C239        C  0.87790696  0.62782695  0.28218159     1.00300
C240        C  0.97735112  0.65757461  0.27070115     1.06200
O241        O  0.88474614  0.59112052  0.27473277    -0.76400
C242        C  0.92596775  0.56416909  0.33738355     1.04500
Fe243      Fe  0.76686696  0.52014565  0.44389534     1.65800
Fe244      Fe  0.79405167  0.62657912  0.44395283     1.73200
Fe245      Fe  0.80655335  0.56500262  0.48231858     1.54400
O246        O  0.75440325  0.53829018  0.49078383    -0.80100
O247        O  0.84504601  0.64491152  0.45746903    -0.78400
O248        O  0.73811545  0.49603141  0.46701365    -0.82600
O249        O  0.81405809  0.48151168  0.44980136    -0.77500
O250        O  0.78574897  0.62705533  0.48928423    -0.79200
O251        O  0.82670622  0.59844196  0.42345739    -0.82000
C252        C  0.83139830  0.47572318  0.46495642     0.98800
C253        C  0.73493336  0.50726406  0.48374078     1.06200
O254        O  0.78931496  0.57042031  0.45680358    -1.11000
O255        O  0.74225354  0.61913894  0.42918555    -0.73400
O256        O  0.71716503  0.55493544  0.43761062    -0.76900
O257        O  0.82940929  0.50241514  0.47833772    -0.77600
C258        C  0.71369110  0.59284063  0.43074330     0.97700
O259        O  0.79392503  0.53609615  0.41895656    -0.75500
O260        O  0.76241784  0.65797289  0.46368080    -0.80700
C261        C  0.86747006  0.62797271  0.46937968     1.00300
C262        C  0.76798717  0.65766337  0.48084103     1.06200
O263        O  0.86066054  0.59124894  0.47681603    -0.76400
C264        C  0.81946576  0.56425423  0.41418486     1.04500
Fe265      Fe  0.51703992  0.98465572  0.69387262     1.65800
Fe266      Fe  0.54416368  0.87818601  0.69398161     1.73200
Fe267      Fe  0.55678739  0.93990532  0.73230575     1.54400
O268        O  0.57971689  0.00243118  0.72827341    -0.80100
O269        O  0.51255958  0.84688717  0.71374657    -0.78400
O270        O  0.56424913  0.02330716  0.69974917    -0.82600
O271        O  0.48831125  0.00886154  0.71698243    -0.77500
O272        O  0.61085539  0.91354753  0.72680265    -0.79200
O273        O  0.49235375  0.88559952  0.67923235    -0.82000
C274        C  0.48518826  0.99772267  0.73372223     0.98800
C275        C  0.58166266  0.02910256  0.71488624     1.06200
O276        O  0.53948623  0.93440551  0.70680109    -1.11000
O277        O  0.57678055  0.90621421  0.67345131    -0.73400
O278        O  0.54406729  0.96860354  0.66894173    -0.76900
O279        O  0.50469270  0.96674561  0.74078020    -0.77600
C280        C  0.56955639  0.94038755  0.66416929     0.97700
O281        O  0.46731711  0.94987292  0.68760452    -0.75500
O282        O  0.59517549  0.85986488  0.70747409    -0.80700
C283        C  0.51812625  0.84728699  0.73090717     1.00300
C284        C  0.61763510  0.87681349  0.71936661     1.06200
O285        O  0.53591193  0.87792232  0.73932359    -0.76400
C286        C  0.46381965  0.91194271  0.68076005     1.04500
Fe287      Fe  0.72832111  0.98475596  0.55758398     1.65800
Fe288      Fe  0.70120287  0.87827149  0.55748589     1.73200
Fe289      Fe  0.68854699  0.93996245  0.51915736     1.54400
O290        O  0.66561523  0.00248739  0.52318283    -0.80100
O291        O  0.73276764  0.84694496  0.53771400    -0.78400
O292        O  0.68112837  0.02342527  0.55169443    -0.82600
O293        O  0.75706611  0.00890897  0.53447107    -0.77500
O294        O  0.63448402  0.91360066  0.52466976    -0.79200
O295        O  0.75303566  0.88567694  0.57221702    -0.82000
C296        C  0.76016149  0.99777374  0.51772868     0.98800
C297        C  0.66369406  0.02919013  0.53656099     1.06200
O298        O  0.70586971  0.93448655  0.54466188    -1.11000
O299        O  0.66862380  0.90630832  0.57802799    -0.73400
O300        O  0.70127463  0.96875096  0.58251476    -0.76900
O301        O  0.74063402  0.96680896  0.51067169    -0.77600
C302        C  0.67582431  0.94050577  0.58730042     0.97700
O303        O  0.77803936  0.94998272  0.56387109    -0.75500
O304        O  0.65016789  0.85995102  0.54401064    -0.80700
C305        C  0.72717004  0.84732488  0.52055601     1.00300
C306        C  0.62770606  0.87687888  0.53211471     1.06200
O307        O  0.70940510  0.87797147  0.51214003    -0.76400
C308        C  0.78155190  0.91204792  0.57070662     1.04500
Fe309      Fe  0.47853292  0.52018142  0.80761876     1.65800
Fe310      Fe  0.45124138  0.62658670  0.80756710     1.73200
Fe311      Fe  0.43878807  0.56498207  0.76920228     1.54400
O312        O  0.49095596  0.53830198  0.76073237    -0.80100
O313        O  0.40022100  0.64485505  0.79406070    -0.78400
O314        O  0.50726792  0.49605481  0.78449820    -0.82600
O315        O  0.43135379  0.48150263  0.80172834    -0.77500
O316        O  0.45953851  0.62705344  0.76223352    -0.79200
O317        O  0.41863232  0.59840288  0.82806178    -0.82000
C318        C  0.41400120  0.47569936  0.78657619     0.98800
C319        C  0.51043341  0.50727682  0.76777055     1.06200
O320        O  0.45603268  0.57043074  0.79471396    -1.11000
O321        O  0.50305588  0.61920376  0.82232640    -0.73400
O322        O  0.52820888  0.55503260  0.81388955    -0.76900
O323        O  0.41597481  0.50238284  0.77319336    -0.77600
C324        C  0.53164315  0.59293823  0.82076487     0.97700
O325        O  0.45151534  0.53612685  0.83256198    -0.75500
O326        O  0.48281924  0.65803506  0.78783637    -0.80700
C327        C  0.37781627  0.62789842  0.78214581     1.00300
C328        C  0.47724685  0.65770563  0.77067602     1.06200
O329        O  0.38466038  0.59118529  0.77470428    -0.76400
C330        C  0.42593789  0.56423870  0.83733475     1.04500
Fe331      Fe  0.26699926  0.51976411  0.94385156     1.65800
Fe332      Fe  0.29425915  0.62618705  0.94395852     1.73200
Fe333      Fe  0.30680781  0.56447534  0.98228066     1.54400
O334        O  0.25466711  0.53774321  0.99075715    -0.80100
O335        O  0.34529077  0.64444492  0.95746044    -0.78400
O336        O  0.23826536  0.49560640  0.96696556    -0.82600
O337        O  0.31417025  0.48104823  0.94972134    -0.77500
O338        O  0.28605712  0.62651934  0.98929297    -0.79200
O339        O  0.32684427  0.59808412  0.92343637    -0.82000
C340        C  0.33156827  0.47523386  0.96486095     0.98800
C341        C  0.23514838  0.50676662  0.98370381     1.06200
O342        O  0.28950906  0.56998590  0.95677826    -1.11000
O343        O  0.24243024  0.61884280  0.92920848    -0.73400
O344        O  0.21731470  0.55462249  0.93759508    -0.76900
O345        O  0.32963504  0.50190501  0.97825000    -0.77600
C346        C  0.21385837  0.59255253  0.93074874     0.97700
O347        O  0.29402519  0.53576856  0.91891589    -0.75500
O348        O  0.26269928  0.65755242  0.96371911    -0.80700
C349        C  0.36772360  0.62746605  0.96935692     1.00300
C350        C  0.26832455  0.65718863  0.98087524     1.06200
O351        O  0.36091703  0.59071646  0.97677141    -0.76400
C352        C  0.31956508  0.56393025  0.91414991     1.04500
Fe353      Fe  0.72842920  0.48435407  0.05756070     1.65800
Fe354      Fe  0.70138169  0.37786178  0.05749475     1.73200
Fe355      Fe  0.68876801  0.43945384  0.01913465     1.54400
O356        O  0.66580579  0.50198647  0.02312527    -0.80100
O357        O  0.73301960  0.34652380  0.03774976    -0.78400
O358        O  0.68120972  0.52294228  0.05164812    -0.82600
O359        O  0.75717547  0.50850049  0.03444587    -0.77500
O360        O  0.63470911  0.41307854  0.02463676    -0.79200
O361        O  0.75318405  0.38535338  0.07224467    -0.82000
C362        C  0.76032918  0.49731308  0.01771199     0.98800
C363        C  0.66382982  0.52869465  0.03650088     1.06200
O364        O  0.70603603  0.43404542  0.04464912    -1.11000
O365        O  0.66873112  0.40592012  0.07801271    -0.73400
O366        O  0.70136552  0.46837251  0.08249377    -0.76900
O367        O  0.74085901  0.46629607  0.01066241    -0.77600
C368        C  0.67590200  0.44013867  0.08727783     0.97700
O369        O  0.77816822  0.44964069  0.06386232    -0.75500
O370        O  0.65038527  0.35947357  0.04400186    -0.80700
C371        C  0.72747569  0.34686762  0.02058766     1.00300
C372        C  0.62793199  0.37637171  0.03209447     1.06200
O373        O  0.70968280  0.37746339  0.01215209    -0.76400
C374        C  0.78169548  0.41172626  0.07071520     1.04500
Fe375      Fe  0.51706007  0.48460120  0.19387421     1.65800
Fe376      Fe  0.54412543  0.37809045  0.19394417     1.73200
Fe377      Fe  0.55675331  0.43972038  0.23230125     1.54400
O378        O  0.57970605  0.50224404  0.22830926    -0.80100
O379        O  0.51255961  0.34672968  0.21370664    -0.78400
O380        O  0.56425351  0.52323493  0.19979882    -0.82600
O381        O  0.48828813  0.50871870  0.21698722    -0.77500
O382        O  0.61081308  0.41333953  0.22679812    -0.79200
O383        O  0.49228124  0.38552463  0.17922581    -0.82000
C384        C  0.48516130  0.49755644  0.23372415     0.98800
C385        C  0.58165071  0.52897367  0.21494355     1.06200
O386        O  0.53946977  0.43429282  0.20678601    -1.11000
O387        O  0.57670311  0.40613120  0.17339935    -0.73400
O388        O  0.54414084  0.46864107  0.16894220    -0.76900
O389        O  0.50466481  0.46657235  0.24077786    -0.77600
C390        C  0.56954982  0.44036013  0.16414079     0.97700
O391        O  0.46733325  0.44987473  0.18755661    -0.75500
O392        O  0.59516846  0.35975770  0.20741068    -0.80700
C393        C  0.51810703  0.34710531  0.23086804     1.00300
C394        C  0.61761222  0.37665205  0.21932445     1.06200
O395        O  0.53586223  0.37773900  0.23929693    -0.76400
C396        C  0.46378896  0.41193185  0.18073007     1.04500
Fe397      Fe  0.26688944  0.02013200  0.44387444     1.65800
Fe398      Fe  0.29403327  0.12658069  0.44392185     1.73200
Fe399      Fe  0.30653754  0.06503413  0.48229552     1.54400
O400        O  0.25438831  0.03831740  0.49075835    -0.80100
O401        O  0.34502569  0.14492863  0.45743478    -0.78400
O402        O  0.23815310  0.99600916  0.46699566    -0.82600
O403        O  0.31410051  0.98153308  0.44978604    -0.77500
O404        O  0.28572609  0.12708888  0.48925317    -0.79200
O405        O  0.32669282  0.09844493  0.42342779    -0.82000
C406        C  0.33141434  0.97575048  0.46494818     0.98800
C407        C  0.23495322  0.00725717  0.48372030     1.06200
O408        O  0.28930993  0.07042832  0.45677840    -1.11000
O409        O  0.24223643  0.11910874  0.42915801    -0.73400
O410        O  0.21717312  0.05489121  0.43758418    -0.76900
O411        O  0.32940020  0.00244673  0.47832690    -0.77600
C412        C  0.21368616  0.09279322  0.43071441     0.97700
O413        O  0.29393580  0.03608161  0.41893357    -0.75500
O414        O  0.26239437  0.15798583  0.46364623    -0.80700
C415        C  0.36745002  0.12799896  0.46934764     1.00300
C416        C  0.26796328  0.15769028  0.48080653     1.06200
O417        O  0.36064075  0.09128347  0.47679115    -0.76400
C418        C  0.31946272  0.06425065  0.41415798     1.04500
Fe419      Fe  0.47852191  0.02004499  0.30763537     1.65800
Fe420      Fe  0.45130257  0.12648825  0.30755973     1.73200
Fe421      Fe  0.43878084  0.06483774  0.26920803     1.54400
O422        O  0.49091911  0.03809631  0.26073680    -0.80100
O423        O  0.40026715  0.14476506  0.29406379    -0.78400
O424        O  0.50728379  0.99592742  0.28452110    -0.82600
O425        O  0.43135592  0.98135886  0.30173211    -0.77500
O426        O  0.45956939  0.12687259  0.26221868    -0.79200
O427        O  0.41871229  0.09837162  0.32808155    -0.82000
C428        C  0.41398301  0.97556975  0.28658459     0.98800
C429        C  0.51042211  0.00710746  0.26778717     1.06200
O430        O  0.45604595  0.07030195  0.29472026    -1.11000
O431        O  0.50314015  0.11911582  0.32230069    -0.73400
O432        O  0.52821079  0.05486261  0.31392194    -0.76900
O433        O  0.41592899  0.00226753  0.27320712    -0.77600
C434        C  0.53169292  0.09279638  0.32076376     0.97700
O435        O  0.45145770  0.03599752  0.33257152    -0.75500
O436        O  0.48286744  0.15788797  0.28780974    -0.80700
C437        C  0.37785206  0.12781969  0.28214962     1.00300
C438        C  0.47729395  0.15752781  0.27064984     1.06200
O439        O  0.38467636  0.09110024  0.27470946    -0.76400
C440        C  0.42594568  0.06418143  0.33735150     1.04500
Fe441      Fe  0.01704219  0.48469598  0.69389896     1.65800
Fe442      Fe  0.04414068  0.37821709  0.69398133     1.73200
Fe443      Fe  0.05672772  0.43986623  0.73232896     1.54400
O444        O  0.07966612  0.50239878  0.72832419    -0.80100
O445        O  0.01252359  0.34688100  0.71373077    -0.78400
O446        O  0.06426084  0.52331417  0.69979764    -0.82600
O447        O  0.98830388  0.50887604  0.71700982    -0.77500
O448        O  0.11079936  0.41351371  0.72683139    -0.79200
O449        O  0.99233687  0.38566576  0.67923042    -0.82000
C450        C  0.98514943  0.49770310  0.73374408     0.98800
C451        C  0.08164386  0.52908739  0.71494406     1.06200
O452        O  0.03945980  0.43441475  0.70681726    -1.11000
O453        O  0.07676909  0.40626982  0.67346180    -0.73400
O454        O  0.04407750  0.46867804  0.66896716    -0.76900
O455        O  0.00462323  0.46669443  0.74079630    -0.77600
C456        C  0.06955346  0.44045581  0.66418708     0.97700
O457        O  0.96731525  0.44994303  0.68761015    -0.75500
O458        O  0.09514835  0.35987789  0.70747344    -0.80700
C459        C  0.01806867  0.34725253  0.73089267     1.00300
C460        C  0.11759585  0.37680477  0.71937677     1.06200
O461        O  0.03584239  0.37787402  0.73932281    -0.76400
C462        C  0.96381156  0.41202205  0.68075700     1.04500
Fe463      Fe  0.22827912  0.48471980  0.55759325     1.65800
Fe464      Fe  0.20112088  0.37824811  0.55748606     1.73200
Fe465      Fe  0.18849415  0.43996245  0.51916126     1.54400
O466        O  0.16556309  0.50248184  0.52319622    -0.80100
O467        O  0.23267766  0.34691240  0.53771264    -0.78400
O468        O  0.18109688  0.52340735  0.55170742    -0.82600
O469        O  0.25703201  0.50888036  0.53448495    -0.77500
O470        O  0.13442698  0.41360495  0.52466572    -0.79200
O471        O  0.25295369  0.38562641  0.57221992    -0.82000
C472        C  0.26012043  0.49776226  0.51774060     0.98800
C473        C  0.16365064  0.52917666  0.53657730     1.06200
O474        O  0.20581155  0.43446627  0.54466580    -1.11000
O475        O  0.16854595  0.40629603  0.57802815    -0.73400
O476        O  0.20122928  0.46871398  0.58252154    -0.76900
O477        O  0.24058246  0.46681239  0.51067886    -0.77600
C478        C  0.17576203  0.44048553  0.58730328     0.97700
O479        O  0.27798554  0.44992033  0.56387641    -0.75500
O480        O  0.15008467  0.35994898  0.54400754    -0.80700
C481        C  0.22710218  0.34731475  0.52055279     1.00300
C482        C  0.12763619  0.37688412  0.53210812     1.06200
O483        O  0.20935389  0.37797596  0.51213804    -0.76400
C484        C  0.28148237  0.41198048  0.57070911     1.04500
Fe485      Fe  0.97847425  0.02013230  0.80759228     1.65800
Fe486      Fe  0.95121956  0.12654977  0.80753828     1.73200
Fe487      Fe  0.93872336  0.06494082  0.76917741     1.54400
O488        O  0.99088006  0.03824366  0.76070312    -0.80100
O489        O  0.90019459  0.14483272  0.79403730    -0.78400
O490        O  0.00719609  0.99599810  0.78446923    -0.82600
O491        O  0.93127995  0.98147356  0.80170561    -0.77500
O492        O  0.95948165  0.12700007  0.76220222    -0.79200
O493        O  0.91861749  0.09838826  0.82804351    -0.82000
C494        C  0.91391754  0.97567757  0.78655554     0.98800
C495        C  0.01035889  0.00721972  0.76774130     1.06200
O496        O  0.95598397  0.07038815  0.79468761    -1.11000
O497        O  0.00304643  0.11915516  0.82228742    -0.73400
O498        O  0.02816782  0.05496227  0.81385916    -0.76900
O499        O  0.91589544  0.00235544  0.77317166    -0.77600
C500        C  0.03162319  0.09287503  0.82072578     0.97700
O501        O  0.95146694  0.03608751  0.83253795    -0.75500
O502        O  0.98279182  0.15797834  0.78779943    -0.80700
C503        C  0.87778130  0.12788377  0.78212367     1.00300
C504        C  0.97720358  0.15764779  0.77064022     1.06200
O505        O  0.88460719  0.09116252  0.77468565    -0.76400
C506        C  0.92590883  0.06421767  0.83731554     1.04500
Fe507      Fe  0.76701177  0.01973341  0.94386311     1.65800
Fe508      Fe  0.79423615  0.12616989  0.94395001     1.73200
Fe509      Fe  0.80676857  0.06451326  0.98228976     1.54400
O510        O  0.75462225  0.03779134  0.99076222    -0.80100
O511        O  0.84526126  0.14444635  0.95745187    -0.78400
O512        O  0.73826103  0.99560489  0.96697950    -0.82600
O513        O  0.81418765  0.98104584  0.94975435    -0.77500
O514        O  0.78601120  0.12656314  0.98928412    -0.79200
O515        O  0.82683414  0.09805868  0.92343298    -0.82000
C516        C  0.83156134  0.97525313  0.96490137     0.98800
C517        C  0.73512135  0.00679435  0.98371377     1.06200
O518        O  0.78949231  0.06998316  0.95678176    -1.11000
O519        O  0.74241412  0.11879420  0.92919885    -0.73400
O520        O  0.71732264  0.05456031  0.93758461    -0.76900
O521        O  0.82960296  0.00193992  0.97828364    -0.77600
C522        C  0.71385516  0.09248486  0.93073409     0.97700
O523        O  0.79405916  0.03570825  0.91892743    -0.75500
O524        O  0.76266159  0.15755571  0.96370093    -0.80700
C525        C  0.86768960  0.12748313  0.96935421     1.00300
C526        C  0.76827818  0.15721700  0.98085766     1.06200
O527        O  0.86087794  0.09074857  0.97678063    -0.76400
C528        C  0.81957816  0.06388735  0.91415362     1.04500
Fe529      Fe  0.97849190  0.73434132  0.94390965     1.65800
Fe530      Fe  0.95129204  0.62790376  0.94390963     1.73200
Fe531      Fe  0.93873650  0.68940502  0.98230127     1.54400
O532        O  0.99087115  0.71610050  0.99079544    -0.80100
O533        O  0.90024709  0.60957899  0.95738496    -0.78400
O534        O  0.00720323  0.75839945  0.96704700    -0.82600
O535        O  0.93129321  0.77296435  0.94981901    -0.77500
O536        O  0.95952550  0.62734215  0.98925148    -0.79200
O537        O  0.91870842  0.65609720  0.92340470    -0.82000
C538        C  0.91392390  0.77871799  0.96497018     0.98800
C539        C  0.01035349  0.74713824  0.98377060     1.06200
O540        O  0.95601835  0.68403561  0.95678828    -1.11000
O541        O  0.00314171  0.63535225  0.92918121    -0.73400
O542        O  0.02820157  0.69956492  0.93762082    -0.76900
O543        O  0.91588793  0.75199752  0.97833979    -0.77600
C544        C  0.03169269  0.66166455  0.93074727     0.97700
O545        O  0.95148234  0.71846487  0.91895386    -0.75500
O546        O  0.98284808  0.59643060  0.96364190    -0.80700
C547        C  0.87781547  0.62649092  0.96930151     1.00300
C548        C  0.97727378  0.59672966  0.98080235     1.06200
O549        O  0.88463820  0.66317506  0.97677136    -0.76400
C550        C  0.92596008  0.69031394  0.91415517     1.04500
Fe551      Fe  0.76699504  0.73471688  0.80761019     1.65800
Fe552      Fe  0.79417252  0.62825664  0.80755233     1.73200
Fe553      Fe  0.80674477  0.68985600  0.76919289     1.54400
O554        O  0.75461655  0.71659290  0.76071192    -0.80100
O555        O  0.84521918  0.60996083  0.79407125    -0.78400
O556        O  0.73824002  0.75879636  0.78448857    -0.82600
O557        O  0.81416957  0.77337918  0.80169859    -0.77500
O558        O  0.78595762  0.62781489  0.76220999    -0.79200
O559        O  0.82674756  0.65637644  0.82807788    -0.82000
C560        C  0.83154903  0.77914388  0.78655117     0.98800
C561        C  0.73511005  0.74759164  0.76775599     1.06200
O562        O  0.78945772  0.68443092  0.79470479    -1.11000
O563        O  0.74232599  0.63566065  0.82228314    -0.73400
O564        O  0.71729548  0.69993540  0.81391153    -0.76900
O565        O  0.82960335  0.75242819  0.77317859    -0.77600
C566        C  0.71379470  0.66201052  0.82075710     0.97700
O567        O  0.79405657  0.71879715  0.83254898    -0.75500
O568        O  0.76262120  0.59684206  0.78780049    -0.80700
C569        C  0.86765410  0.62689259  0.78216260     1.00300
C570        C  0.76821741  0.59717536  0.77064201     1.06200
O571        O  0.86083879  0.66359564  0.77470964    -0.76400
C572        C  0.81953709  0.69058984  0.83733916     1.04500
Fe573      Fe  0.01699373  0.26980040  0.05764331     1.65800
Fe574      Fe  0.04418977  0.37626235  0.05750799     1.73200
Fe575      Fe  0.05674442  0.31448812  0.01919097     1.54400
O576        O  0.07963969  0.25195286  0.02322751    -0.80100
O577        O  0.01262567  0.40758779  0.03773831    -0.78400
O578        O  0.06415381  0.23107547  0.05175002    -0.82600
O579        O  0.98820914  0.24561863  0.03454687    -0.77500
O580        O  0.11083386  0.34081878  0.02467243    -0.79200
O581        O  0.99236445  0.36893337  0.07225491    -0.82000
C582        C  0.98509710  0.25672717  0.01780331     0.98800
C583        C  0.08156073  0.22526953  0.03661059     1.06200
O584        O  0.03946558  0.32002644  0.04470047    -1.11000
O585        O  0.07677115  0.34823138  0.07804786    -0.73400
O586        O  0.04407332  0.28583325  0.08256315    -0.76900
O587        O  0.00462818  0.28766909  0.01073306    -0.77600
C588        C  0.06955126  0.31406260  0.08733343     0.97700
O589        O  0.96730722  0.30463589  0.06392935    -0.75500
O590        O  0.09522282  0.39450944  0.04401115    -0.80700
C591        C  0.01818039  0.40715906  0.02057701     1.00300
C592        C  0.11765019  0.37754642  0.03210699     1.06200
O593        O  0.03591022  0.37647903  0.01216284    -0.76400
C594        C  0.96382441  0.34259210  0.07075041     1.04500
Fe595      Fe  0.22848389  0.27005357  0.19385335     1.65800
Fe596      Fe  0.20133287  0.37651213  0.19397081     1.73200
Fe597      Fe  0.18878809  0.31480715  0.23230099     1.54400
O598        O  0.16586331  0.25226818  0.22827491    -0.80100
O599        O  0.23296600  0.40783224  0.21371990    -0.78400
O600        O  0.18128566  0.23139714  0.19974184    -0.82600
O601        O  0.25723893  0.24584480  0.21695362    -0.77500
O602        O  0.13470621  0.34115281  0.22682033    -0.79200
O603        O  0.25311800  0.36909914  0.17919807    -0.82000
C604        C  0.26038652  0.25698731  0.23369275     0.98800
C605        C  0.16389885  0.22559572  0.21488588     1.06200
O606        O  0.20604547  0.32030153  0.20679012    -1.11000
O607        O  0.16868078  0.34845960  0.17345800    -0.73400
O608        O  0.20142663  0.28609765  0.16893032    -0.76900
O609        O  0.24090205  0.28797853  0.24075587    -0.77600
C610        C  0.17590877  0.31429067  0.16417095     0.97700
O611        O  0.27819190  0.30485317  0.18757654    -0.75500
O612        O  0.15034617  0.39483528  0.20748791    -0.80700
C613        C  0.22741806  0.40744800  0.23088224     1.00300
C614        C  0.12791290  0.37788942  0.21939201     1.06200
O615        O  0.20966073  0.37680651  0.23930785    -0.76400
C616        C  0.28166827  0.34277942  0.18072827     1.04500
Fe617      Fe  0.26703050  0.73460069  0.30758182     1.65800
Fe618      Fe  0.29425074  0.62817170  0.30753068     1.73200
Fe619      Fe  0.30681106  0.68976191  0.26917356     1.54400
O620        O  0.25467914  0.71648738  0.26068719    -0.80100
O621        O  0.34527541  0.60985873  0.29403840    -0.78400
O622        O  0.23831940  0.75872143  0.28445501    -0.82600
O623        O  0.31422906  0.77325048  0.30169729    -0.77500
O624        O  0.28602673  0.62770832  0.26219519    -0.79200
O625        O  0.32685380  0.65632401  0.32803496    -0.82000
C626        C  0.33162159  0.77902725  0.28655357     0.98800
C627        C  0.23518453  0.74750468  0.26772423     1.06200
O628        O  0.28951655  0.68433197  0.29467997    -1.11000
O629        O  0.24242947  0.63559478  0.32228116    -0.73400
O630        O  0.21732873  0.69979223  0.31385304    -0.76900
O631        O  0.32966359  0.75233728  0.27317142    -0.77600
C632        C  0.21386530  0.66189126  0.32072690     0.97700
O633        O  0.29403402  0.71864960  0.33252712    -0.75500
O634        O  0.26267374  0.59675678  0.28778872    -0.80700
C635        C  0.36771810  0.62680338  0.28213719     1.00300
C636        C  0.26827517  0.59707761  0.27063003     1.06200
O637        O  0.36091035  0.66351904  0.27469448    -0.76400
C638        C  0.31957641  0.69050422  0.33730537     1.04500
Fe639      Fe  0.47835908  0.73471251  0.44388703     1.65800
Fe640      Fe  0.45109791  0.62827979  0.44395182     1.73200
Fe641      Fe  0.43851080  0.68993934  0.48229623     1.54400
O642        O  0.49064131  0.71666310  0.49079022    -0.80100
O643        O  0.40002395  0.61003470  0.45742102    -0.78400
O644        O  0.50708475  0.75881469  0.46701176    -0.82600
O645        O  0.43118821  0.77342185  0.44976952    -0.77500
O646        O  0.45925533  0.62789536  0.48929660    -0.79200
O647        O  0.41857154  0.65641340  0.42341721    -0.82000
C648        C  0.41376459  0.77920393  0.46490584     0.98800
C649        C  0.51018203  0.74763331  0.48374701     1.06200
O650        O  0.45583647  0.68446440  0.45679258    -1.11000
O651        O  0.50296947  0.63562306  0.42923364    -0.73400
O652        O  0.52804720  0.69987144  0.43761435    -0.76900
O653        O  0.41567971  0.75250901  0.47828446    -0.77600
C654        C  0.53152389  0.66193922  0.43076919     0.97700
O655        O  0.45135067  0.71877167  0.41894238    -0.75500
O656        O  0.48259576  0.59685869  0.46371715    -0.80700
C657        C  0.37758787  0.62698781  0.46932506     1.00300
C658        C  0.47697351  0.59722100  0.48087384     1.06200
O659        O  0.38440927  0.66369989  0.47677157    -0.76400
C660        C  0.42584384  0.69059802  0.41415126     1.04500
Fe661      Fe  0.72848662  0.27016865  0.69382429     1.65800
Fe662      Fe  0.70136651  0.37665169  0.69394292     1.73200
Fe663      Fe  0.68879990  0.31494727  0.73227620     1.54400
O664        O  0.66586216  0.25241814  0.72825957    -0.80100
O665        O  0.73298341  0.40796761  0.71369960    -0.78400
O666        O  0.68131724  0.23149419  0.69973790    -0.82600
O667        O  0.75728603  0.24600803  0.71692132    -0.77500
O668        O  0.63472533  0.34131839  0.72679714    -0.79200
O669        O  0.75316855  0.36925158  0.67918394    -0.82000
C670        C  0.76041385  0.25713434  0.73366349     0.98800
C671        C  0.66392396  0.22571579  0.71488127     1.06200
O672        O  0.70606065  0.32043142  0.70676161    -1.11000
O673        O  0.66873395  0.34862186  0.67341462    -0.73400
O674        O  0.70137002  0.28617680  0.66890721    -0.76900
O675        O  0.74090299  0.28809775  0.74073203    -0.77600
C676        C  0.67590215  0.31442032  0.66413745     0.97700
O677        O  0.77818864  0.30494782  0.68751881    -0.75500
O678        O  0.65036438  0.39497383  0.70745027    -0.80700
C679        C  0.72744096  0.40757365  0.73086197     1.00300
C680        C  0.62793198  0.37804540  0.71935970     1.06200
O681        O  0.70968566  0.37693079  0.73928558    -0.76400
C682        C  0.78169298  0.34289062  0.68069123     1.04500
Fe683      Fe  0.51686292  0.27017105  0.55762179     1.65800
Fe684      Fe  0.54391738  0.37666008  0.55753436     1.73200
Fe685      Fe  0.55647138  0.31502757  0.51917845     1.54400
O686        O  0.57941037  0.25248284  0.52316621    -0.80100
O687        O  0.51225962  0.40798221  0.53779675    -0.78400
O688        O  0.56408189  0.23157539  0.55170366    -0.82600
O689        O  0.48810128  0.24599158  0.53451667    -0.77500
O690        O  0.61054735  0.34138506  0.52465984    -0.79200
O691        O  0.49212710  0.36918908  0.57229781    -0.82000
C692        C  0.48490764  0.25718407  0.51778609     0.98800
C693        C  0.58141584  0.22579136  0.53654501     1.06200
O694        O  0.53924449  0.32046349  0.54469808    -1.11000
O695        O  0.57658377  0.34862329  0.57804681    -0.73400
O696        O  0.54393673  0.28618972  0.58254907    -0.76900
O697        O  0.50435384  0.28821051  0.51073080    -0.77600
C698        C  0.56940645  0.31442751  0.58732294     0.97700
O699        O  0.46712933  0.30489996  0.56392250    -0.75500
O700        O  0.59490401  0.39501831  0.54402275    -0.80700
C701        C  0.51778798  0.40762466  0.52063367     1.00300
C702        C  0.61734093  0.37809975  0.53211067     1.06200
O703        O  0.53557235  0.37702113  0.51219637    -0.76400
C704        C  0.46360786  0.34282640  0.57076761     1.04500
C705        C  0.65412239  0.30775503  0.64745083    -0.16900
C706        C  0.63445144  0.30504789  0.63372093     0.07100
C707        C  0.61083500  0.30505194  0.61774529     0.09000
C708        C  0.59117301  0.30776334  0.60401290    -0.17800
C709        C  0.48852438  0.55917756  0.49083150    -0.16900
C710        C  0.49453154  0.52370812  0.49737731     0.07100
C711        C  0.49992628  0.48104995  0.50413755     0.09000
C712        C  0.50604386  0.44560383  0.51068270    -0.17800
C713        C  0.40414340  0.69732413  0.39745233    -0.16900
C714        C  0.38452028  0.70005558  0.38371192     0.07100
C715        C  0.36094246  0.70002865  0.36772947     0.09000
C716        C  0.34130587  0.69725785  0.35399449    -0.17800
C717        C  0.23910325  0.44544009  0.24084491    -0.16900
C718        C  0.24519248  0.48089562  0.24739148     0.07100
C719        C  0.25060216  0.52356145  0.25414718     0.09000
C720        C  0.25665700  0.55903388  0.26068475    -0.17800
C721        C  0.09127836  0.30742397  0.10403210    -0.16900
C722        C  0.11091294  0.30475962  0.11777200     0.07100
C723        C  0.13449940  0.30483184  0.13375296     0.09000
C724        C  0.15414784  0.30759792  0.14748520    -0.17800
C725        C  0.75661016  0.55913579  0.76069256    -0.16900
C726        C  0.75057794  0.52366735  0.75414772     0.07100
C727        C  0.74519880  0.48100730  0.74738253     0.09000
C728        C  0.73912618  0.44555751  0.74082839    -0.17800
C729        C  0.98893348  0.55868834  0.99073554    -0.16900
C730        C  0.99502334  0.52322796  0.99727430     0.07100
C731        C  0.00045112  0.48057876  0.00404083     0.09000
C732        C  0.00652946  0.44513781  0.01060024    -0.17800
C733        C  0.90421593  0.69710918  0.89746886    -0.16900
C734        C  0.88455763  0.69992001  0.88373941     0.07100
C735        C  0.86094231  0.69999818  0.86776441     0.09000
C736        C  0.84128180  0.69730346  0.85403143    -0.17800
C737        C  0.85244416  0.93507013  0.96723205    -0.16900
C738        C  0.86585074  0.89871698  0.96827368     0.07100
C739        C  0.87964085  0.85526109  0.96831072     0.09000
C740        C  0.89303964  0.81889705  0.96731170    -0.17800
C741        C  0.89944846  0.15343513  0.97632309    -0.16900
C742        C  0.92065758  0.17806513  0.98464410     0.07100
C743        C  0.94187694  0.20744799  0.99592326     0.09000
C744        C  0.96007567  0.23134081  0.00601515    -0.17800
C745        C  0.89302503  0.93550004  0.78422673    -0.16900
C746        C  0.87961301  0.89914618  0.78320469     0.07100
C747        C  0.86582062  0.85569127  0.78319780     0.09000
C748        C  0.85242440  0.81932931  0.78421396    -0.17800
C749        C  0.90417517  0.05744811  0.85400410    -0.16900
C750        C  0.88453603  0.05462822  0.86773800     0.07100
C751        C  0.86094688  0.05452379  0.88371894     0.09000
C752        C  0.84130554  0.05719588  0.89745747    -0.17800
C753        C  0.78542679  0.23174440  0.74545346    -0.16900
C754        C  0.80361421  0.20785284  0.75554932     0.07100
C755        C  0.82482184  0.17847086  0.76683252     0.09000
C756        C  0.84602481  0.15383969  0.77515536    -0.17800
C757        C  0.28512795  0.52314318  0.50594356    -0.16900
C758        C  0.30333008  0.54703382  0.49585242     0.07100
C759        C  0.32456881  0.57641607  0.48458131     0.09000
C760        C  0.34580138  0.60104422  0.47627266    -0.17800
C761        C  0.31980000  0.39747686  0.57614270    -0.16900
C762        C  0.35293706  0.38484972  0.57832004     0.07100
C763        C  0.39212349  0.36992116  0.57833807     0.09000
C764        C  0.42527276  0.35730660  0.57618698    -0.17800
C765        C  0.00635510  0.30927069  0.74085064    -0.16900
C766        C  0.00024892  0.27382468  0.74739881     0.07100
C767        C  0.99484000  0.23116694  0.75415791     0.09000
C768        C  0.98880073  0.19569677  0.76069707    -0.17800
C769        C  0.09127535  0.44712789  0.64748915    -0.16900
C770        C  0.11088668  0.44985334  0.63374366     0.07100
C771        C  0.13443401  0.44986515  0.61774975     0.09000
C772        C  0.15404570  0.44715447  0.60400363    -0.17800
C773        C  0.96013966  0.52307939  0.74554159    -0.16900
C774        C  0.94192920  0.54695436  0.75563649     0.07100
C775        C  0.92067800  0.57631749  0.76691128     0.09000
C776        C  0.89943751  0.60093867  0.77521959    -0.17800
C777        C  0.82001775  0.35739140  0.67526735    -0.16900
C778        C  0.85316425  0.37001078  0.67311473     0.07100
C779        C  0.89235199  0.38493136  0.67313495     0.09000
C780        C  0.92549182  0.39754319  0.67531657    -0.17800
C781        C  0.39311694  0.93537571  0.28425148    -0.16900
C782        C  0.37972741  0.89901108  0.28322912     0.07100
C783        C  0.36593965  0.85555384  0.28322154     0.09000
C784        C  0.35252614  0.81919881  0.28423135    -0.17800
C785        C  0.34608601  0.15377111  0.27518519    -0.16900
C786        C  0.32485795  0.17837768  0.26686273     0.07100
C787        C  0.30361134  0.20772528  0.25557873     0.09000
C788        C  0.28540083  0.23159723  0.24548327    -0.17800
C789        C  0.35228482  0.93556352  0.46729171    -0.16900
C790        C  0.36567237  0.89919492  0.46829474     0.07100
C791        C  0.37945830  0.85573658  0.46826416     0.09000
C792        C  0.39287015  0.81938393  0.46722881    -0.17800
C793        C  0.25629354  0.19573076  0.49074021    -0.16900
C794        C  0.25021209  0.23120208  0.49727273     0.07100
C795        C  0.24480551  0.27386702  0.50402830     0.09000
C796        C  0.23874407  0.30932222  0.51058016    -0.17800
C797        C  0.40419193  0.05746181  0.35404117    -0.16900
C798        C  0.38452647  0.05473305  0.36777207     0.07100
C799        C  0.36090293  0.05475270  0.38374536     0.09000
C800        C  0.34123169  0.05750990  0.39747365    -0.17800
C801        C  0.45988791  0.23181055  0.50599440    -0.16900
C802        C  0.44167717  0.20794175  0.49589860     0.07100
C803        C  0.42043541  0.17858405  0.48461947     0.09000
C804        C  0.39920992  0.15396312  0.47630445    -0.17800
C805        C  0.48891039  0.19555445  0.26069659    -0.16900
C806        C  0.49495139  0.23101502  0.25414857     0.07100
C807        C  0.50034098  0.27366834  0.24738090     0.09000
C808        C  0.50642015  0.30911520  0.24082773    -0.17800
C809        C  0.46015392  0.52292786  0.24552402    -0.16900
C810        C  0.44195725  0.54681920  0.25561725     0.07100
C811        C  0.42072651  0.57621111  0.26688657     0.09000
C812        C  0.39949738  0.60085015  0.27519134    -0.17800
C813        C  0.31998233  0.35730728  0.17530036    -0.16900
C814        C  0.35311902  0.36994784  0.17313557     0.07100
C815        C  0.39230405  0.38487896  0.17313620     0.09000
C816        C  0.42545177  0.39748205  0.17530177    -0.17800
C817        C  0.73920857  0.30887849  0.01063683    -0.16900
C818        C  0.74531478  0.27342173  0.00409640     0.07100
C819        C  0.75070149  0.23074999  0.99734603     0.09000
C820        C  0.75671148  0.19526884  0.99080896    -0.17800
C821        C  0.65413565  0.44683965  0.10396711    -0.16900
C822        C  0.63448841  0.44960234  0.11770363     0.07100
C823        C  0.61090696  0.44967209  0.13369200     0.09000
C824        C  0.59127719  0.44700808  0.14743721    -0.17800
C825        C  0.78533212  0.52268246  0.00591083    -0.16900
C826        C  0.80353555  0.54655169  0.99581277     0.07100
C827        C  0.82478339  0.57591177  0.98453787     0.09000
C828        C  0.84602696  0.60053331  0.97623384    -0.17800
C829        C  0.82002807  0.39727438  0.07614918    -0.16900
C830        C  0.85317653  0.38468003  0.07832144     0.07100
C831        C  0.89236648  0.36976291  0.07833117     0.09000
C832        C  0.92550791  0.35712864  0.07617316    -0.17800
C833        C  0.21013252  0.48140252  0.99550230    -0.16900
C834        C  0.19191843  0.45751161  0.00558805     0.07100
C835        C  0.17066657  0.42812175  0.01684930     0.09000
C836        C  0.14942972  0.40348860  0.02515242    -0.17800
C837        C  0.07002711  0.64716842  0.92532971    -0.16900
C838        C  0.10318680  0.63458889  0.92317212     0.07100
C839        C  0.14239251  0.61971508  0.92317299     0.09000
C840        C  0.17554226  0.60710623  0.92533198    -0.17800
C841        C  0.34129285  0.55723386  0.89745609    -0.16900
C842        C  0.36094337  0.55454796  0.88372206     0.07100
C843        C  0.38454763  0.55463896  0.86774794     0.09000
C844        C  0.40419832  0.55745714  0.85401879    -0.17800
C845        C  0.53545613  0.48193148  0.75596639    -0.16900
C846        C  0.55367922  0.45805109  0.74587811     0.07100
C847        C  0.57493837  0.42866434  0.73461620     0.09000
C848        C  0.59617122  0.40402124  0.72631396    -0.17800
C849        C  0.56995081  0.60749257  0.82619158    -0.16900
C850        C  0.60310012  0.62009567  0.82835396     0.07100
C851        C  0.64230695  0.63495902  0.82835181     0.09000
C852        C  0.67546580  0.64752858  0.82618630    -0.17800
C853        C  0.60228957  0.18559882  0.53420319    -0.16900
C854        C  0.61565572  0.14921729  0.53319471     0.07100
C855        C  0.62940468  0.10573875  0.53321397     0.09000
C856        C  0.64279294  0.06937092  0.53424064    -0.17800
C857        C  0.59592830  0.85090318  0.52518193    -0.16900
C858        C  0.57468666  0.82624965  0.51689231     0.07100
C859        C  0.55342589  0.79685057  0.50563919     0.09000
C860        C  0.53520336  0.77296757  0.49555349    -0.17800
C861        C  0.64305399  0.18551804  0.71720818    -0.16900
C862        C  0.62969109  0.14913649  0.71821832     0.07100
C863        C  0.61594793  0.10565670  0.71821218     0.09000
C864        C  0.60256390  0.06928529  0.71719845    -0.17800
C865        C  0.50642322  0.80932148  0.74087948    -0.16900
C866        C  0.50031704  0.77388360  0.74743598     0.07100
C867        C  0.49489921  0.73122964  0.75419886     0.09000
C868        C  0.48885027  0.69575913  0.76073651    -0.17800
C869        C  0.59128923  0.94705825  0.64747380    -0.16900
C870        C  0.61091649  0.94980093  0.63373354     0.07100
C871        C  0.63448337  0.94984548  0.61774544     0.09000
C872        C  0.65410640  0.94716150  0.60400164    -0.17800
C873        C  0.64941166  0.85085161  0.72630570    -0.16900
C874        C  0.67064783  0.82620747  0.73460062     0.07100
C875        C  0.69189169  0.79681493  0.74586047     0.09000
C876        C  0.71009752  0.77293299  0.75595092    -0.17800
C877        C  0.75632140  0.69569871  0.49077783    -0.16900
C878        C  0.75024587  0.73117587  0.49730504     0.07100
C879        C  0.74485091  0.77385269  0.50404804     0.09000
C880        C  0.73880076  0.80932037  0.51058954    -0.17800
C881        C  0.64911429  0.40407067  0.52517163    -0.16900
C882        C  0.67036879  0.42870388  0.51688006     0.07100
C883        C  0.69165380  0.45807308  0.50562541     0.09000
C884        C  0.70989550  0.48193457  0.49553984    -0.17800
C885        C  0.56984747  0.64741198  0.42534806    -0.16900
C886        C  0.60300045  0.63481751  0.42318217     0.07100
C887        C  0.64220736  0.61994665  0.42317247     0.09000
C888        C  0.67536505  0.60735784  0.42532519    -0.17800
C889        C  0.90421137  0.55744741  0.35407262    -0.16900
C890        C  0.88454345  0.55472247  0.36780305     0.07100
C891        C  0.86091536  0.55474730  0.38377514     0.09000
C892        C  0.84123920  0.55750852  0.39750191    -0.17800
C893        C  0.03551801  0.48179618  0.25602179    -0.16900
C894        C  0.05371870  0.45790644  0.24592951     0.07100
C895        C  0.07494365  0.42850738  0.23466093     0.09000
C896        C  0.09615772  0.40385792  0.22635290    -0.17800
C897        C  0.07004473  0.60731049  0.32622628    -0.16900
C898        C  0.10320199  0.61990566  0.32837034     0.07100
C899        C  0.14240479  0.63478242  0.32834475     0.09000
C900        C  0.17555143  0.64737684  0.32616365    -0.17800
C901        C  0.14300621  0.18540581  0.21720081    -0.16900
C902        C  0.12962426  0.14903054  0.21820533     0.07100
C903        C  0.11587452  0.10555052  0.21819734     0.09000
C904        C  0.10250220  0.06917209  0.21718176    -0.17800
C905        C  0.98896065  0.69561754  0.26075677    -0.16900
C906        C  0.99499131  0.73108450  0.25421253     0.07100
C907        C  0.00036963  0.77373671  0.24744148     0.09000
C908        C  0.00644343  0.80917286  0.24087709    -0.17800
C909        C  0.14940999  0.85067168  0.22625756    -0.16900
C910        C  0.17066617  0.82604916  0.23455441     0.07100
C911        C  0.19194378  0.79669483  0.24582026     0.09000
C912        C  0.21017052  0.77283956  0.25591490    -0.17800
C913        C  0.10242887  0.18506624  0.03428736    -0.16900
C914        C  0.11580219  0.14869342  0.03324429     0.07100
C915        C  0.12955238  0.10521532  0.03319736     0.09000
C916        C  0.14293321  0.06883776  0.03418432    -0.17800
C917        C  0.23922791  0.80884321  0.01065257    -0.16900
C918        C  0.24535029  0.77338460  0.00411731     0.07100
C919        C  0.25075299  0.73071065  0.99737241     0.09000
C920        C  0.25676692  0.69523036  0.99083540    -0.17800
C921        C  0.15414977  0.94679671  0.10397121    -0.16900
C922        C  0.13449330  0.94953162  0.11770465     0.07100
C923        C  0.11089722  0.94955725  0.13368645     0.09000
C924        C  0.09125573  0.94686531  0.14742592    -0.17800
C925        C  0.09614697  0.85035069  0.02519802    -0.16900
C926        C  0.07488283  0.82570165  0.01692080     0.07100
C927        C  0.05359876  0.79631613  0.00567395     0.09000
C928        C  0.03536852  0.77245075  0.99558562    -0.17800
C929        C  0.10228251  0.68559679  0.53423136    -0.16900
C930        C  0.11563104  0.64920822  0.53322394     0.07100
C931        C  0.12936293  0.60572478  0.53324112     0.09000
C932        C  0.14274625  0.56935534  0.53426377    -0.17800
C933        C  0.14919576  0.90403513  0.52516643    -0.16900
C934        C  0.17044918  0.92866123  0.51687084     0.07100
C935        C  0.19171905  0.95803339  0.50561152     0.09000
C936        C  0.20993982  0.98190653  0.49552257    -0.17800
C937        C  0.95990329  0.73181535  0.50602228    -0.16900
C938        C  0.94169321  0.70793160  0.49593149     0.07100
C939        C  0.92045235  0.67856042  0.48465658     0.09000
C940        C  0.89922870  0.65393482  0.47634180    -0.17800
C941        C  0.92535442  0.85743308  0.57620295    -0.16900
C942        C  0.89220577  0.87005096  0.57835144     0.07100
C943        C  0.85301563  0.88496521  0.57832763     0.09000
C944        C  0.81987412  0.89757135  0.57614495    -0.17800
C945        C  0.14304282  0.68549197  0.71727970    -0.16900
C946        C  0.12967922  0.64911191  0.71829894     0.07100
C947        C  0.11593297  0.60563294  0.71829534     0.09000
C948        C  0.10254643  0.56926361  0.71727460    -0.17800
C949        C  0.15417414  0.80764224  0.64746178    -0.16900
C950        C  0.13452160  0.80496345  0.63372525     0.07100
C951        C  0.11091663  0.80501904  0.61774609     0.09000
C952        C  0.09125423  0.80777117  0.60401535    -0.17800
C953        C  0.03538457  0.98187913  0.75593721    -0.16900
C954        C  0.05361709  0.95800588  0.74585004     0.07100
C955        C  0.07489147  0.92862510  0.73459232     0.09000
C956        C  0.09613851  0.90398345  0.72629774    -0.17800
C957        C  0.34604302  0.65383694  0.77518335    -0.16900
C958        C  0.32482206  0.67846710  0.76687037     0.07100
C959        C  0.30359622  0.70785643  0.75559843     0.09000
C960        C  0.28540128  0.73175139  0.74550721    -0.17800
C961        C  0.42549952  0.89743997  0.67533054    -0.16900
C962        C  0.39236118  0.88481472  0.67315638     0.07100
C963        C  0.35317489  0.86988793  0.67314197     0.09000
C964        C  0.32002758  0.85727267  0.67529702    -0.17800
C965        C  0.39304621  0.31886406  0.96726103    -0.16900
C966        C  0.37964614  0.35522988  0.96825174     0.07100
C967        C  0.36585606  0.39868756  0.96821157     0.09000
C968        C  0.35245023  0.43504307  0.96717567    -0.17800
C969        C  0.59615944  0.35038399  0.02516691    -0.16900
C970        C  0.57491152  0.32573858  0.01687786     0.07100
C971        C  0.55364369  0.29635914  0.00562045     0.09000
C972        C  0.53541923  0.27249119  0.99553027    -0.17800
C973        C  0.57002442  0.14706842  0.92529583    -0.16900
C974        C  0.60318202  0.13448346  0.92313801     0.07100
C975        C  0.64238747  0.11961101  0.92314271     0.09000
C976        C  0.67553822  0.10701286  0.92530782    -0.17800
C977        C  0.28533934  0.02262239  0.00591387    -0.16900
C978        C  0.30355706  0.04648849  0.99582002     0.07100
C979        C  0.32482356  0.07584877  0.98455264     0.09000
C980        C  0.34607596  0.10047026  0.97625318    -0.17800
C981        C  0.39312382  0.43550913  0.78424507    -0.16900
C982        C  0.37971465  0.39915190  0.78322328     0.07100
C983        C  0.36590929  0.35569892  0.78321474     0.09000
C984        C  0.35249548  0.31934228  0.78422570    -0.17800
C985        C  0.23908980  0.94559171  0.74081599    -0.16900
C986        C  0.24516956  0.98105623  0.74735507     0.07100
C987        C  0.25056954  0.02372679  0.75410561     0.09000
C988        C  0.25662056  0.05919653  0.76064560    -0.17800
C989        C  0.34124095  0.19723624  0.85402636    -0.16900
C990        C  0.36088858  0.19989856  0.86776451     0.07100
C991        C  0.38449903  0.19978851  0.88374105     0.09000
C992        C  0.40416559  0.19696764  0.89746756    -0.17800
C993        C  0.14938504  0.35084539  0.72630367    -0.16900
C994        C  0.17064168  0.32620778  0.73458988     0.07100
C995        C  0.19191269  0.29682687  0.74584292     0.09000
C996        C  0.21013751  0.27295677  0.75593024    -0.17800
C997        C  0.17544599  0.14752662  0.82613535    -0.16900
C998        C  0.14229032  0.13493596  0.82829519     0.07100
C999        C  0.10309023  0.12004229  0.82829760     0.09000
C1000       C  0.06994228  0.10742383  0.82614124    -0.17800
C1001       C  0.39945649  0.10092958  0.77520518    -0.16900
C1002       C  0.42069963  0.07631482  0.76689438     0.07100
C1003       C  0.44195850  0.04696497  0.75561583     0.09000
C1004       C  0.46017501  0.02309919  0.74551900    -0.17800
C1005       C  0.60253203  0.56915681  0.21729033    -0.16900
C1006       C  0.61590256  0.60553062  0.21832357     0.07100
C1007       C  0.62964721  0.64900840  0.21833677     0.09000
C1008       C  0.64302480  0.68538140  0.21732208    -0.17800
C1009       C  0.59614929  0.90378116  0.22636704    -0.16900
C1010       C  0.57490847  0.92843330  0.23465794     0.07100
C1011       C  0.55365529  0.95784570  0.24590782     0.09000
C1012       C  0.53544119  0.98174768  0.25598921    -0.17800
C1013       C  0.84613455  0.65377311  0.27522233    -0.16900
C1014       C  0.82490142  0.67838531  0.26690651     0.07100
C1015       C  0.80364985  0.70774025  0.25562923     0.09000
C1016       C  0.78543414  0.73161086  0.24553600    -0.17800
C1017       C  0.81996911  0.85712081  0.17531206    -0.16900
C1018       C  0.85311005  0.86974146  0.17314180     0.07100
C1019       C  0.89229774  0.88466318  0.17313830     0.09000
C1020       C  0.92544334  0.89727571  0.17530128    -0.17800
C1021       C  0.60246761  0.68511101  0.03428564    -0.16900
C1022       C  0.61583361  0.64873743  0.03323581     0.07100
C1023       C  0.62956643  0.60525476  0.03318393     0.09000
C1024       C  0.64293489  0.56887282  0.03417011    -0.17800
C1025       C  0.50655218  0.94518263  0.01063527    -0.16900
C1026       C  0.50050650  0.98063023  0.00407577     0.07100
C1027       C  0.49511378  0.02327994  0.99730429     0.09000
C1028       C  0.48903318  0.05873305  0.99075718    -0.17800
C1029       C  0.65412158  0.80745780  0.14752608    -0.16900
C1030       C  0.63448051  0.80472381  0.13378974     0.07100
C1031       C  0.61090653  0.80470127  0.11780355     0.09000
C1032       C  0.59128251  0.80739793  0.10406069    -0.17800
C1033       C  0.64942247  0.90353696  0.02518004    -0.16900
C1034       C  0.67065113  0.92817385  0.01687419     0.07100
C1035       C  0.69189339  0.95755876  0.00560651     0.09000
C1036       C  0.71010306  0.98144049  0.99551514    -0.17800
C1037       C  0.39947990  0.65341457  0.97633363    -0.16900
C1038       C  0.42068637  0.67804202  0.98465876     0.07100
C1039       C  0.44190450  0.70742593  0.99593975     0.09000
C1040       C  0.46010070  0.73132419  0.00603149    -0.17800
C1041       C  0.42550872  0.85708177  0.07619142    -0.16900
C1042       C  0.39236551  0.86971112  0.07834683     0.07100
C1043       C  0.35317719  0.88463069  0.07833399     0.09000
C1044       C  0.32003170  0.89723092  0.07615946    -0.17800
C1045       C  0.85255386  0.31923108  0.28421474    -0.16900
C1046       C  0.86597911  0.35558239  0.28320974     0.07100
C1047       C  0.87978304  0.39903454  0.28322279     0.09000
C1048       C  0.89318053  0.43539545  0.28425125    -0.17800
C1049       C  0.75671018  0.05907184  0.26063828    -0.16900
C1050       C  0.75065595  0.02359740  0.25410376     0.07100
C1051       C  0.74523972  0.98092504  0.24735878     0.09000
C1052       C  0.73914184  0.94545831  0.24082588    -0.17800
C1053       C  0.64940381  0.35067593  0.22624157    -0.16900
C1054       C  0.67066953  0.32604116  0.23452574     0.07100
C1055       C  0.69196081  0.29667709  0.24578001     0.09000
C1056       C  0.71019947  0.27282371  0.25586988    -0.17800
C1057       C  0.67553599  0.14738982  0.32611062    -0.16900
C1058       C  0.64238664  0.13479715  0.32828868     0.07100
C1059       C  0.60318155  0.11992097  0.32831400     0.09000
C1060       C  0.57002271  0.10732439  0.32617250    -0.17800
C1061       C  0.96013970  0.02293699  0.24548246    -0.16900
C1062       C  0.94194817  0.04682956  0.25557730     0.07100
C1063       C  0.92072952  0.07621931  0.26685283     0.09000
C1064       C  0.89951176  0.10085886  0.27516388    -0.17800
C1065       C  0.85227745  0.43553655  0.46728683    -0.16900
C1066       C  0.86567660  0.39917052  0.46827508     0.07100
C1067       C  0.87947388  0.35571587  0.46822875     0.09000
C1068       C  0.89288910  0.31936555  0.46718508    -0.17800
C1069       C  0.98855550  0.05915937  0.49079484    -0.16900
C1070       C  0.99457184  0.02369801  0.49734788     0.07100
C1071       C  0.99998010  0.98105148  0.50412104     0.09000
C1072       C  0.00610747  0.94561697  0.51067652    -0.17800
C1073       C  0.90415619  0.19729300  0.39741056    -0.16900
C1074       C  0.88452858  0.20003478  0.38367205     0.07100
C1075       C  0.86094181  0.20002438  0.36769278     0.09000
C1076       C  0.84129792  0.19726409  0.35395991    -0.17800
C1077       C  0.09586280  0.35091643  0.52516616    -0.16900
C1078       C  0.07463460  0.32626995  0.51686543     0.07100
C1079       C  0.05339868  0.29687528  0.50560003     0.09000
C1080       C  0.03519830  0.27298732  0.49550761    -0.17800
C1081       C  0.06985527  0.14738123  0.42530661    -0.16900
C1082       C  0.10300338  0.13477200  0.42314169     0.07100
C1083       C  0.14220378  0.11988373  0.42313521     0.09000
C1084       C  0.17535835  0.10729102  0.42529205    -0.17800
C1085       C  0.84582419  0.10103068  0.47624144    -0.16900
C1086       C  0.82459460  0.07640850  0.48455479     0.07100
C1087       C  0.80336103  0.04703497  0.49583197     0.09000
C1088       C  0.78516381  0.02315092  0.50592779    -0.17800
loop_ 
_geom_bond_atom_site_label_1 
_geom_bond_atom_site_label_2 
_geom_bond_distance 
_geom_bond_site_symmetry_2 
_ccdc_geom_bond_type 
Fe1          O17   2.097       .  S
Fe1           O7   2.046       .  S
Fe1          O14   2.058   1_655  S
Fe1           O6   2.086   1_655  S
Fe1          O12   1.957       .  S
Fe2           O5   2.082       .  S
Fe2           O9   2.054       .  S
Fe2          O13   2.087   1_655  S
Fe2          O18   2.039       .  S
Fe2          O12   1.959       .  S
Fe3          O21   2.058       .  S
Fe3           O8   2.085       .  S
Fe3          O15   2.083       .  S
Fe3           O4   2.058       .  S
Fe3          O12   1.959       .  S
O4           C11   1.266   1_655  A
O5           C19   1.269       .  A
O6           C11   1.271       .  A
O7           C10   1.267       .  A
O8           C20   1.273       .  A
O9           C22   1.267       .  A
C10          O15   1.272       .  A
C10        C1068   1.429       .  S
C11        C1080   1.440       .  S
O13          C16   1.270       .  A
O14          C16   1.266       .  A
C16        C1081   1.441       .  S
O17          C22   1.274       .  A
O18          C20   1.266       .  A
C19          O21   1.266       .  A
C19        C1085   1.438       .  S
C20        C1069   1.425       .  S
C22        C1073   1.441       .  S
Fe23         O39   2.097       .  S
Fe23         O29   2.046       .  S
Fe23         O36   2.058       .  S
Fe23         O28   2.086       .  S
Fe23         O34   1.957       .  S
Fe24         O27   2.082       .  S
Fe24         O31   2.054       .  S
Fe24         O35   2.087       .  S
Fe24         O40   2.039       .  S
Fe24         O34   1.959       .  S
Fe25         O43   2.058       .  S
Fe25         O30   2.085       .  S
Fe25         O37   2.083       .  S
Fe25         O26   2.058       .  S
Fe25         O34   1.958       .  S
O26          C33   1.266       .  A
O27          C41   1.269       .  A
O28          C33   1.271       .  A
O29          C32   1.267       .  A
O30          C42   1.273       .  A
O31          C44   1.267       .  A
C32          O37   1.272       .  A
C32        C1045   1.429       .  S
C33        C1056   1.440       .  S
O35          C38   1.270       .  A
O36          C38   1.266       .  A
C38        C1057   1.441       .  S
O39          C44   1.274       .  A
O40          C42   1.266       .  A
C41          O43   1.266       .  A
C41        C1064   1.438       .  S
C42        C1049   1.425       .  S
C44        C1076   1.441       .  S
Fe45         O61   2.058       .  S
Fe45         O51   2.086       .  S
Fe45         O58   2.097       .  S
Fe45         O50   2.047       .  S
Fe45         O56   1.957       .  S
Fe46         O49   2.039       .  S
Fe46         O53   2.087       .  S
Fe46         O57   2.054       .  S
Fe46         O62   2.082       .  S
Fe46         O56   1.960       .  S
Fe47         O65   2.085       .  S
Fe47         O52   2.058       .  S
Fe47         O59   2.058       .  S
Fe47         O48   2.083       .  S
Fe47         O56   1.959       .  S
O48          C55   1.272       .  A
O49          C63   1.265       .  A
O50          C55   1.267       .  A
O51          C54   1.271       .  A
O52          C64   1.266       .  A
O53          C66   1.270       .  A
C54          O59   1.266       .  A
C54        C1040   1.440       .  S
C55        C1021   1.429       .  S
O57          C60   1.267       .  A
O58          C60   1.274       .  A
C60        C1032   1.441       .  S
O61          C66   1.266       .  A
O62          C64   1.269       .  A
C63          O65   1.273       .  A
C63        C1025   1.425       .  S
C64        C1033   1.438       .  S
C66        C1041   1.440       .  S
Fe67         O83   2.058       .  S
Fe67         O73   2.086       .  S
Fe67         O80   2.098       .  S
Fe67         O72   2.046       .  S
Fe67         O78   1.957       .  S
Fe68         O71   2.039       .  S
Fe68         O75   2.087       .  S
Fe68         O79   2.054       .  S
Fe68         O84   2.082       .  S
Fe68         O78   1.959       .  S
Fe69         O87   2.085       .  S
Fe69         O74   2.058       .  S
Fe69         O81   2.058       .  S
Fe69         O70   2.083       .  S
Fe69         O78   1.959       .  S
O70          C77   1.272       .  A
O71          C85   1.265       .  A
O72          C77   1.267       .  A
O73          C76   1.271       .  A
O74          C86   1.266       .  A
O75          C88   1.270       .  A
C76          O81   1.266       .  A
C76        C1016   1.440       .  S
C77        C1008   1.429       .  S
O79          C82   1.267       .  A
O80          C82   1.274       .  A
C82        C1029   1.441       .  S
O83          C88   1.266       .  A
O84          C86   1.269       .  A
C85          O87   1.273       .  A
C85        C1052   1.425       .  S
C86        C1009   1.438       .  S
C88        C1017   1.440       .  S
Fe89        O105   2.098       .  S
Fe89         O95   2.046       .  S
Fe89        O102   2.058       .  S
Fe89         O94   2.086       .  S
Fe89        O100   1.957       .  S
Fe90         O93   2.082       .  S
Fe90         O97   2.054       .  S
Fe90        O101   2.087       .  S
Fe90        O106   2.039       .  S
Fe90        O100   1.959       .  S
Fe91        O109   2.058       .  S
Fe91         O96   2.085       .  S
Fe91        O103   2.083       .  S
Fe91         O92   2.058       .  S
Fe91        O100   1.959       .  S
O92          C99   1.266       .  A
O93         C107   1.269       .  A
O94          C99   1.271       .  A
O95          C98   1.267       .  A
O96         C108   1.273       .  A
O97         C110   1.267       .  A
C98         O103   1.272       .  A
C98         C984   1.429       .  S
C99         C996   1.439       .  S
O101        C104   1.270       .  A
O102        C104   1.266       .  A
C104        C997   1.441       .  S
O105        C110   1.274       .  A
O106        C108   1.265       .  A
C107        O109   1.266       .  A
C107       C1001   1.438       .  S
C108        C988   1.425       .  S
C110        C989   1.441       .  S
Fe111       O127   2.098       .  S
Fe111       O117   2.046       .  S
Fe111       O124   2.058       .  S
Fe111       O116   2.086       .  S
Fe111       O122   1.957       .  S
Fe112       O115   2.082       .  S
Fe112       O119   2.054       .  S
Fe112       O123   2.087       .  S
Fe112       O128   2.039       .  S
Fe112       O122   1.959       .  S
Fe113       O131   2.058       .  S
Fe113       O118   2.085       .  S
Fe113       O125   2.083       .  S
Fe113       O114   2.058       .  S
Fe113       O122   1.959       .  S
O114        C121   1.266       .  A
O115        C129   1.269       .  A
O116        C121   1.271       .  A
O117        C120   1.267       .  A
O118        C130   1.273       .  A
O119        C132   1.267       .  A
C120        O125   1.272       .  A
C120        C965   1.429       .  S
C121        C972   1.439       .  S
O123        C126   1.270       .  A
O124        C126   1.266       .  A
C126        C973   1.441       .  S
O127        C132   1.274       .  A
O128        C130   1.266       .  A
C129        O131   1.266       .  A
C129        C980   1.438       .  S
C130       C1028   1.425       .  S
C132        C992   1.441       .  S
Fe133       O149   2.058       .  S
Fe133       O139   2.086       .  S
Fe133       O146   2.098       .  S
Fe133       O138   2.046       .  S
Fe133       O144   1.957       .  S
Fe134       O137   2.039       .  S
Fe134       O141   2.087       .  S
Fe134       O145   2.054       .  S
Fe134       O150   2.082       .  S
Fe134       O144   1.960       .  S
Fe135       O153   2.085       .  S
Fe135       O140   2.058       .  S
Fe135       O147   2.058       .  S
Fe135       O136   2.083       .  S
Fe135       O144   1.959       .  S
O136        C143   1.272       .  A
O137        C151   1.265       .  A
O138        C143   1.267       .  A
O139        C142   1.271       .  A
O140        C152   1.266       .  A
O141        C154   1.270       .  A
C142        O147   1.266       .  A
C142        C960   1.440       .  S
C143        C945   1.429       .  S
O145        C148   1.267       .  A
O146        C148   1.274       .  A
C148        C949   1.441       .  S
O149        C154   1.266       .  A
O150        C152   1.269       .  A
C151        O153   1.273       .  A
C151        C985   1.425       .  S
C152        C956   1.438       .  S
C154        C964   1.440       .  S
Fe155       O171   2.058   1_455  S
Fe155       O161   2.086   1_455  S
Fe155       O168   2.098       .  S
Fe155       O160   2.046       .  S
Fe155       O166   1.957       .  S
Fe156       O159   2.039       .  S
Fe156       O163   2.087   1_455  S
Fe156       O167   2.054       .  S
Fe156       O172   2.082       .  S
Fe156       O166   1.959       .  S
Fe157       O175   2.085       .  S
Fe157       O162   2.058       .  S
Fe157       O169   2.058       .  S
Fe157       O158   2.083       .  S
Fe157       O166   1.959       .  S
O158        C165   1.272       .  A
O159        C173   1.266       .  A
O160        C165   1.267       .  A
O161        C164   1.271       .  A
O162        C174   1.266       .  A
O163        C176   1.270       .  A
C164        O169   1.266   1_655  A
C164        C937   1.440       .  S
C165        C929   1.429       .  S
O167        C170   1.267       .  A
O168        C170   1.274       .  A
C170        C952   1.441       .  S
O171        C176   1.266       .  A
O172        C174   1.269       .  A
C173        O175   1.273       .  A
C173       C1072   1.425       .  S
C174        C933   1.438       .  S
C176        C941   1.440       .  S
Fe177       O193   2.058       .  S
Fe177       O183   2.086   1_565  S
Fe177       O190   2.098       .  S
Fe177       O182   2.046   1_565  S
Fe177       O188   1.957       .  S
Fe178       O181   2.039       .  S
Fe178       O185   2.087       .  S
Fe178       O189   2.054       .  S
Fe178       O194   2.081       .  S
Fe178       O188   1.959       .  S
Fe179       O197   2.085       .  S
Fe179       O184   2.058       .  S
Fe179       O191   2.058       .  S
Fe179       O180   2.084   1_565  S
Fe179       O188   1.959       .  S
O180        C187   1.272       .  A
O181        C195   1.265       .  A
O182        C187   1.267       .  A
O183        C186   1.271   1_545  A
O184        C196   1.266       .  A
O185        C198   1.270       .  A
C186        O191   1.266       .  A
C186        C977   1.440   1_565  S
C187        C916   1.429       .  S
O189        C192   1.267       .  A
O190        C192   1.274       .  A
C192        C921   1.441       .  S
O193        C198   1.266       .  A
O194        C196   1.269       .  A
C195        O197   1.273       .  A
C195        C917   1.425       .  S
C196        C925   1.438       .  S
C198       C1044   1.440       .  S
Fe199       O215   2.058   1_455  S
Fe199       O205   2.086   1_465  S
Fe199       O212   2.098       .  S
Fe199       O204   2.046   1_565  S
Fe199       O210   1.957       .  S
Fe200       O203   2.039       .  S
Fe200       O207   2.087   1_455  S
Fe200       O211   2.054       .  S
Fe200       O216   2.082       .  S
Fe200       O210   1.960       .  S
Fe201       O219   2.085       .  S
Fe201       O206   2.058       .  S
Fe201       O213   2.058       .  S
Fe201       O202   2.083   1_565  S
Fe201       O210   1.959       .  S
O202        C209   1.272       .  A
O203        C217   1.266       .  A
O204        C209   1.267       .  A
O205        C208   1.271   1_545  A
O206        C218   1.266       .  A
O207        C220   1.270       .  A
C208        O213   1.266   1_655  A
C208       C1061   1.440   1_565  S
C209        C904   1.429       .  S
O211        C214   1.267       .  A
O212        C214   1.274       .  A
C214        C924   1.441       .  S
O215        C220   1.266       .  A
O216        C218   1.269       .  A
C217        O219   1.273       .  A
C217        C908   1.425       .  S
C218        C909   1.438       .  S
C220       C1020   1.440       .  S
Fe221       O237   2.098       .  S
Fe221       O227   2.046       .  S
Fe221       O234   2.058   1_655  S
Fe221       O226   2.086   1_655  S
Fe221       O232   1.957       .  S
Fe222       O225   2.082       .  S
Fe222       O229   2.054       .  S
Fe222       O233   2.087   1_655  S
Fe222       O238   2.039       .  S
Fe222       O232   1.959       .  S
Fe223       O241   2.058       .  S
Fe223       O228   2.085       .  S
Fe223       O235   2.083       .  S
Fe223       O224   2.058       .  S
Fe223       O232   1.959       .  S
O224        C231   1.266   1_655  A
O225        C239   1.269       .  A
O226        C231   1.271       .  A
O227        C230   1.267       .  A
O228        C240   1.273       .  A
O229        C242   1.267       .  A
C230        O235   1.272       .  A
C230       C1048   1.429       .  S
C231        C893   1.439       .  S
O233        C236   1.270       .  A
O234        C236   1.266       .  A
C236        C897   1.440       .  S
O237        C242   1.274       .  A
O238        C240   1.265       .  A
C239        O241   1.266       .  A
C239       C1013   1.438       .  S
C240        C905   1.425       .  S
C242        C889   1.441       .  S
Fe243       O259   2.098       .  S
Fe243       O249   2.046       .  S
Fe243       O256   2.058       .  S
Fe243       O248   2.086       .  S
Fe243       O254   1.956       .  S
Fe244       O247   2.082       .  S
Fe244       O251   2.054       .  S
Fe244       O255   2.088       .  S
Fe244       O260   2.039       .  S
Fe244       O254   1.959       .  S
Fe245       O263   2.058       .  S
Fe245       O250   2.085       .  S
Fe245       O257   2.084       .  S
Fe245       O246   2.058       .  S
Fe245       O254   1.959       .  S
O246        C253   1.266       .  A
O247        C261   1.269       .  A
O248        C253   1.271       .  A
O249        C252   1.267       .  A
O250        C262   1.273       .  A
O251        C264   1.267       .  A
C252        O257   1.272       .  A
C252       C1065   1.429       .  S
C253        C884   1.439       .  S
O255        C258   1.270       .  A
O256        C258   1.266       .  A
C258        C888   1.441       .  S
O259        C264   1.274       .  A
O260        C262   1.265       .  A
C261        O263   1.266       .  A
C261        C940   1.438       .  S
C262        C877   1.425       .  S
C264        C892   1.441       .  S
Fe265       O281   2.058       .  S
Fe265       O271   2.086   1_565  S
Fe265       O278   2.097       .  S
Fe265       O270   2.046   1_565  S
Fe265       O276   1.957       .  S
Fe266       O269   2.039       .  S
Fe266       O273   2.087       .  S
Fe266       O277   2.054       .  S
Fe266       O282   2.081       .  S
Fe266       O276   1.959       .  S
Fe267       O285   2.085       .  S
Fe267       O272   2.058       .  S
Fe267       O279   2.058       .  S
Fe267       O268   2.083   1_565  S
Fe267       O276   1.959       .  S
O268        C275   1.272       .  A
O269        C283   1.266       .  A
O270        C275   1.267       .  A
O271        C274   1.271   1_545  A
O272        C284   1.266       .  A
O273        C286   1.270       .  A
C274        O279   1.266       .  A
C274       C1004   1.440   1_565  S
C275        C864   1.429       .  S
O277        C280   1.267       .  A
O278        C280   1.274       .  A
C280        C869   1.441       .  S
O281        C286   1.266       .  A
O282        C284   1.269       .  A
C283        O285   1.273       .  A
C283        C865   1.425       .  S
C284        C873   1.438       .  S
C286        C961   1.440       .  S
Fe287       O303   2.058       .  S
Fe287       O293   2.086   1_565  S
Fe287       O300   2.098       .  S
Fe287       O292   2.046   1_565  S
Fe287       O298   1.957       .  S
Fe288       O291   2.039       .  S
Fe288       O295   2.087       .  S
Fe288       O299   2.054       .  S
Fe288       O304   2.081       .  S
Fe288       O298   1.960       .  S
Fe289       O307   2.085       .  S
Fe289       O294   2.058       .  S
Fe289       O301   2.058       .  S
Fe289       O290   2.083   1_565  S
Fe289       O298   1.959       .  S
O290        C297   1.272       .  A
O291        C305   1.265       .  A
O292        C297   1.267       .  A
O293        C296   1.271   1_545  A
O294        C306   1.266       .  A
O295        C308   1.270       .  A
C296        O301   1.266       .  A
C296       C1088   1.440   1_565  S
C297        C856   1.429       .  S
O299        C302   1.267       .  A
O300        C302   1.274       .  A
C302        C872   1.441       .  S
O303        C308   1.266       .  A
O304        C306   1.269       .  A
C305        O307   1.273       .  A
C305        C880   1.425       .  S
C306        C857   1.438       .  S
C308        C944   1.440       .  S
Fe309       O325   2.097       .  S
Fe309       O315   2.046       .  S
Fe309       O322   2.058       .  S
Fe309       O314   2.086       .  S
Fe309       O320   1.957       .  S
Fe310       O313   2.082       .  S
Fe310       O317   2.054       .  S
Fe310       O321   2.088       .  S
Fe310       O326   2.039       .  S
Fe310       O320   1.959       .  S
Fe311       O329   2.058       .  S
Fe311       O316   2.085       .  S
Fe311       O323   2.083       .  S
Fe311       O312   2.058       .  S
Fe311       O320   1.958       .  S
O312        C319   1.266       .  A
O313        C327   1.269       .  A
O314        C319   1.271       .  A
O315        C318   1.267       .  A
O316        C328   1.273       .  A
O317        C330   1.267       .  A
C318        O323   1.272       .  A
C318        C981   1.429       .  S
C319        C845   1.440       .  S
O321        C324   1.270       .  A
O322        C324   1.266       .  A
C324        C849   1.440       .  S
O325        C330   1.274       .  A
O326        C328   1.266       .  A
C327        O329   1.266       .  A
C327        C957   1.438       .  S
C328        C868   1.425       .  S
C330        C844   1.441       .  S
Fe331       O347   2.097       .  S
Fe331       O337   2.046       .  S
Fe331       O344   2.058       .  S
Fe331       O336   2.086       .  S
Fe331       O342   1.957       .  S
Fe332       O335   2.082       .  S
Fe332       O339   2.054       .  S
Fe332       O343   2.087       .  S
Fe332       O348   2.039       .  S
Fe332       O342   1.959       .  S
Fe333       O351   2.058       .  S
Fe333       O338   2.085       .  S
Fe333       O345   2.083       .  S
Fe333       O334   2.058       .  S
Fe333       O342   1.959       .  S
O334        C341   1.266       .  A
O335        C349   1.269       .  A
O336        C341   1.271       .  A
O337        C340   1.267       .  A
O338        C350   1.273       .  A
O339        C352   1.267       .  A
C340        O345   1.272       .  A
C340        C968   1.429       .  S
C341        C833   1.440       .  S
O343        C346   1.270       .  A
O344        C346   1.266       .  A
C346        C840   1.441       .  S
O347        C352   1.274       .  A
O348        C350   1.265       .  A
C349        O351   1.266       .  A
C349       C1037   1.438       .  S
C350        C920   1.425       .  S
C352        C841   1.441       .  S
Fe353       O369   2.058       .  S
Fe353       O359   2.086       .  S
Fe353       O366   2.098       .  S
Fe353       O358   2.046       .  S
Fe353       O364   1.957       .  S
Fe354       O357   2.039       .  S
Fe354       O361   2.087       .  S
Fe354       O365   2.054       .  S
Fe354       O370   2.082       .  S
Fe354       O364   1.959       .  S
Fe355       O373   2.085       .  S
Fe355       O360   2.058       .  S
Fe355       O367   2.058       .  S
Fe355       O356   2.083       .  S
Fe355       O364   1.959       .  S
O356        C363   1.272       .  A
O357        C371   1.265       .  A
O358        C363   1.267       .  A
O359        C362   1.271       .  A
O360        C372   1.266       .  A
O361        C374   1.270       .  A
C362        O367   1.266       .  A
C362        C825   1.440       .  S
C363       C1024   1.429       .  S
O365        C368   1.267       .  A
O366        C368   1.274       .  A
C368        C821   1.441       .  S
O369        C374   1.266       .  A
O370        C372   1.269       .  A
C371        O373   1.273       .  A
C371        C817   1.425       .  S
C372        C969   1.438       .  S
C374        C829   1.440       .  S
Fe375       O391   2.058       .  S
Fe375       O381   2.086       .  S
Fe375       O388   2.098       .  S
Fe375       O380   2.046       .  S
Fe375       O386   1.957       .  S
Fe376       O379   2.039       .  S
Fe376       O383   2.087       .  S
Fe376       O387   2.054       .  S
Fe376       O392   2.082       .  S
Fe376       O386   1.960       .  S
Fe377       O395   2.085       .  S
Fe377       O382   2.058       .  S
Fe377       O389   2.058       .  S
Fe377       O378   2.083       .  S
Fe377       O386   1.959       .  S
O378        C385   1.272       .  A
O379        C393   1.265       .  A
O380        C385   1.267       .  A
O381        C384   1.271       .  A
O382        C394   1.266       .  A
O383        C396   1.270       .  A
C384        O389   1.266       .  A
C384        C809   1.440       .  S
C385       C1005   1.429       .  S
O387        C390   1.267       .  A
O388        C390   1.274       .  A
C390        C824   1.441       .  S
O391        C396   1.266       .  A
O392        C394   1.269       .  A
C393        O395   1.273       .  A
C393        C808   1.425       .  S
C394       C1053   1.438       .  S
C396        C816   1.440       .  S
Fe397       O413   2.098       .  S
Fe397       O403   2.046   1_545  S
Fe397       O410   2.058       .  S
Fe397       O402   2.086   1_545  S
Fe397       O408   1.956       .  S
Fe398       O401   2.082       .  S
Fe398       O405   2.054       .  S
Fe398       O409   2.087       .  S
Fe398       O414   2.039       .  S
Fe398       O408   1.959       .  S
Fe399       O417   2.058       .  S
Fe399       O404   2.085       .  S
Fe399       O411   2.083       .  S
Fe399       O400   2.058       .  S
Fe399       O408   1.958       .  S
O400        C407   1.266       .  A
O401        C415   1.269       .  A
O402        C407   1.271   1_565  A
O403        C406   1.267       .  A
O404        C416   1.273       .  A
O405        C418   1.267       .  A
C406        O411   1.272   1_565  A
C406        C789   1.429       .  S
C407        C936   1.439   1_545  S
O409        C412   1.270       .  A
O410        C412   1.266       .  A
C412       C1084   1.441       .  S
O413        C418   1.274       .  A
O414        C416   1.265       .  A
C415        O417   1.266       .  A
C415        C804   1.438       .  S
C416        C793   1.425       .  S
C418        C800   1.441       .  S
Fe419       O435   2.098       .  S
Fe419       O425   2.046   1_545  S
Fe419       O432   2.058       .  S
Fe419       O424   2.086   1_545  S
Fe419       O430   1.957       .  S
Fe420       O423   2.082       .  S
Fe420       O427   2.054       .  S
Fe420       O431   2.088       .  S
Fe420       O436   2.039       .  S
Fe420       O430   1.959       .  S
Fe421       O439   2.058       .  S
Fe421       O426   2.085       .  S
Fe421       O433   2.083       .  S
Fe421       O422   2.058       .  S
Fe421       O430   1.959       .  S
O422        C429   1.266       .  A
O423        C437   1.269       .  A
O424        C429   1.271   1_565  A
O425        C428   1.267       .  A
O426        C438   1.273       .  A
O427        C440   1.267       .  A
C428        O433   1.272   1_565  A
C428        C781   1.429       .  S
C429       C1012   1.439   1_545  S
O431        C434   1.270       .  A
O432        C434   1.266       .  A
C434       C1060   1.441       .  S
O435        C440   1.274       .  A
O436        C438   1.265       .  A
C437        O439   1.266       .  A
C437        C785   1.438       .  S
C438        C805   1.425       .  S
C440        C797   1.441       .  S
Fe441       O457   2.058   1_455  S
Fe441       O447   2.086   1_455  S
Fe441       O454   2.097       .  S
Fe441       O446   2.046       .  S
Fe441       O452   1.957       .  S
Fe442       O445   2.039       .  S
Fe442       O449   2.087   1_455  S
Fe442       O453   2.054       .  S
Fe442       O458   2.081       .  S
Fe442       O452   1.959       .  S
Fe443       O461   2.085       .  S
Fe443       O448   2.058       .  S
Fe443       O455   2.058       .  S
Fe443       O444   2.083       .  S
Fe443       O452   1.959       .  S
O444        C451   1.272       .  A
O445        C459   1.265       .  A
O446        C451   1.267       .  A
O447        C450   1.271       .  A
O448        C460   1.266       .  A
O449        C462   1.270       .  A
C450        O455   1.266   1_655  A
C450        C773   1.440       .  S
C451        C948   1.429       .  S
O453        C456   1.267       .  A
O454        C456   1.274       .  A
C456        C769   1.441       .  S
O457        C462   1.266       .  A
O458        C460   1.269       .  A
C459        O461   1.273       .  A
C459        C765   1.425       .  S
C460        C993   1.438       .  S
C462        C780   1.440       .  S
Fe463       O479   2.058       .  S
Fe463       O469   2.086       .  S
Fe463       O476   2.097       .  S
Fe463       O468   2.046       .  S
Fe463       O474   1.957       .  S
Fe464       O467   2.039       .  S
Fe464       O471   2.087       .  S
Fe464       O475   2.054       .  S
Fe464       O480   2.081       .  S
Fe464       O474   1.960       .  S
Fe465       O483   2.085       .  S
Fe465       O470   2.058       .  S
Fe465       O477   2.058       .  S
Fe465       O466   2.083       .  S
Fe465       O474   1.959       .  S
O466        C473   1.272       .  A
O467        C481   1.266       .  A
O468        C473   1.267       .  A
O469        C472   1.271       .  A
O470        C482   1.266       .  A
O471        C484   1.270       .  A
C472        O477   1.266       .  A
C472        C757   1.440       .  S
C473        C932   1.429       .  S
O475        C478   1.267       .  A
O476        C478   1.274       .  A
C478        C772   1.441       .  S
O479        C484   1.266       .  A
O480        C482   1.269       .  A
C481        O483   1.273       .  A
C481        C796   1.425       .  S
C482       C1077   1.438       .  S
C484        C761   1.440       .  S
Fe485       O501   2.097       .  S
Fe485       O491   2.046   1_545  S
Fe485       O498   2.058   1_655  S
Fe485       O490   2.086   1_645  S
Fe485       O496   1.957       .  S
Fe486       O489   2.082       .  S
Fe486       O493   2.054       .  S
Fe486       O497   2.088   1_655  S
Fe486       O502   2.039       .  S
Fe486       O496   1.959       .  S
Fe487       O505   2.058       .  S
Fe487       O492   2.085       .  S
Fe487       O499   2.083       .  S
Fe487       O488   2.058       .  S
Fe487       O496   1.958       .  S
O488        C495   1.266   1_655  A
O489        C503   1.269       .  A
O490        C495   1.271   1_565  A
O491        C494   1.267       .  A
O492        C504   1.273       .  A
O493        C506   1.267       .  A
C494        O499   1.272   1_565  A
C494        C745   1.429       .  S
C495        C953   1.440   1_545  S
O497        C500   1.270       .  A
O498        C500   1.266       .  A
C500       C1000   1.441       .  S
O501        C506   1.274       .  A
O502        C504   1.266       .  A
C503        O505   1.266       .  A
C503        C756   1.438       .  S
C504        C768   1.425       .  S
C506        C749   1.441       .  S
Fe507       O523   2.098       .  S
Fe507       O513   2.046   1_545  S
Fe507       O520   2.058       .  S
Fe507       O512   2.086   1_545  S
Fe507       O518   1.957       .  S
Fe508       O511   2.082       .  S
Fe508       O515   2.054       .  S
Fe508       O519   2.087       .  S
Fe508       O524   2.039       .  S
Fe508       O518   1.959       .  S
Fe509       O527   2.058       .  S
Fe509       O514   2.085       .  S
Fe509       O521   2.083       .  S
Fe509       O510   2.058       .  S
Fe509       O518   1.959       .  S
O510        C517   1.266       .  A
O511        C525   1.269       .  A
O512        C517   1.271   1_565  A
O513        C516   1.267       .  A
O514        C526   1.273       .  A
O515        C528   1.267       .  A
C516        O521   1.272   1_565  A
C516        C737   1.429       .  S
C517       C1036   1.440   1_545  S
O519        C522   1.270       .  A
O520        C522   1.266       .  A
C522        C976   1.441       .  S
O523        C528   1.274       .  A
O524        C526   1.265       .  A
C525        O527   1.266       .  A
C525        C741   1.438       .  S
C526        C820   1.425       .  S
C528        C752   1.441       .  S
Fe529       O545   2.098       .  S
Fe529       O535   2.046       .  S
Fe529       O542   2.058   1_655  S
Fe529       O534   2.086   1_655  S
Fe529       O540   1.957       .  S
Fe530       O533   2.082       .  S
Fe530       O537   2.054       .  S
Fe530       O541   2.088   1_655  S
Fe530       O546   2.039       .  S
Fe530       O540   1.959       .  S
Fe531       O549   2.058       .  S
Fe531       O536   2.085       .  S
Fe531       O543   2.083       .  S
Fe531       O532   2.058       .  S
Fe531       O540   1.959       .  S
O532        C539   1.266   1_655  A
O533        C547   1.269       .  A
O534        C539   1.271       .  A
O535        C538   1.267       .  A
O536        C548   1.273       .  A
O537        C550   1.267       .  A
C538        O543   1.272       .  A
C538        C740   1.429       .  S
C539        C928   1.439       .  S
O541        C544   1.270       .  A
O542        C544   1.266       .  A
C544        C837   1.441       .  S
O545        C550   1.274       .  A
O546        C548   1.266       .  A
C547        O549   1.266       .  A
C547        C828   1.438       .  S
C548        C729   1.425       .  S
C550        C733   1.441       .  S
Fe551       O567   2.098       .  S
Fe551       O557   2.046       .  S
Fe551       O564   2.058       .  S
Fe551       O556   2.086       .  S
Fe551       O562   1.957       .  S
Fe552       O555   2.082       .  S
Fe552       O559   2.054       .  S
Fe552       O563   2.087       .  S
Fe552       O568   2.039       .  S
Fe552       O562   1.959       .  S
Fe553       O571   2.058       .  S
Fe553       O558   2.085       .  S
Fe553       O565   2.083       .  S
Fe553       O554   2.058       .  S
Fe553       O562   1.959       .  S
O554        C561   1.266       .  A
O555        C569   1.269       .  A
O556        C561   1.271       .  A
O557        C560   1.267       .  A
O558        C570   1.273       .  A
O559        C572   1.267       .  A
C560        O565   1.272       .  A
C560        C748   1.429       .  S
C561        C876   1.439       .  S
O563        C566   1.270       .  A
O564        C566   1.266       .  A
C566        C852   1.440       .  S
O567        C572   1.274       .  A
O568        C570   1.265       .  A
C569        O571   1.266       .  A
C569        C776   1.438       .  S
C570        C725   1.425       .  S
C572        C736   1.441       .  S
Fe573       O589   2.058   1_455  S
Fe573       O579   2.086   1_455  S
Fe573       O586   2.098       .  S
Fe573       O578   2.047       .  S
Fe573       O584   1.957       .  S
Fe574       O577   2.039       .  S
Fe574       O581   2.087   1_455  S
Fe574       O585   2.054       .  S
Fe574       O590   2.082       .  S
Fe574       O584   1.960       .  S
Fe575       O593   2.085       .  S
Fe575       O580   2.058       .  S
Fe575       O587   2.058       .  S
Fe575       O576   2.083       .  S
Fe575       O584   1.959       .  S
O576        C583   1.272       .  A
O577        C591   1.265       .  A
O578        C583   1.267       .  A
O579        C582   1.271       .  A
O580        C592   1.266       .  A
O581        C594   1.270       .  A
C582        O587   1.266   1_655  A
C582        C744   1.440       .  S
C583        C913   1.429       .  S
O585        C588   1.267       .  A
O586        C588   1.274       .  A
C588        C721   1.441       .  S
O589        C594   1.266       .  A
O590        C592   1.269       .  A
C591        O593   1.273       .  A
C591        C732   1.425       .  S
C592        C836   1.438       .  S
C594        C832   1.440       .  S
Fe595       O611   2.058       .  S
Fe595       O601   2.086       .  S
Fe595       O608   2.098       .  S
Fe595       O600   2.046       .  S
Fe595       O606   1.957       .  S
Fe596       O599   2.039       .  S
Fe596       O603   2.087       .  S
Fe596       O607   2.054       .  S
Fe596       O612   2.081       .  S
Fe596       O606   1.959       .  S
Fe597       O615   2.085       .  S
Fe597       O602   2.058       .  S
Fe597       O609   2.058       .  S
Fe597       O598   2.084       .  S
Fe597       O606   1.959       .  S
O598        C605   1.272       .  A
O599        C613   1.266       .  A
O600        C605   1.267       .  A
O601        C604   1.271       .  A
O602        C614   1.266       .  A
O603        C616   1.270       .  A
C604        O609   1.266       .  A
C604        C788   1.440       .  S
C605        C901   1.429       .  S
O607        C610   1.267       .  A
O608        C610   1.274       .  A
C610        C724   1.441       .  S
O611        C616   1.266       .  A
O612        C614   1.269       .  A
C613        O615   1.273       .  A
C613        C717   1.425       .  S
C614        C896   1.438       .  S
C616        C813   1.440       .  S
Fe617       O633   2.097       .  S
Fe617       O623   2.046       .  S
Fe617       O630   2.058       .  S
Fe617       O622   2.086       .  S
Fe617       O628   1.957       .  S
Fe618       O621   2.082       .  S
Fe618       O625   2.054       .  S
Fe618       O629   2.087       .  S
Fe618       O634   2.039       .  S
Fe618       O628   1.959       .  S
Fe619       O637   2.058       .  S
Fe619       O624   2.085       .  S
Fe619       O631   2.083       .  S
Fe619       O620   2.058       .  S
Fe619       O628   1.958       .  S
O620        C627   1.266       .  A
O621        C635   1.269       .  A
O622        C627   1.271       .  A
O623        C626   1.267       .  A
O624        C636   1.273       .  A
O625        C638   1.267       .  A
C626        O631   1.272       .  A
C626        C784   1.429       .  S
C627        C912   1.440       .  S
O629        C632   1.270       .  A
O630        C632   1.266       .  A
C632        C900   1.440       .  S
O633        C638   1.274       .  A
O634        C636   1.266       .  A
C635        O637   1.266       .  A
C635        C812   1.438       .  S
C636        C720   1.425       .  S
C638        C716   1.441       .  S
Fe639       O655   2.097       .  S
Fe639       O645   2.046       .  S
Fe639       O652   2.058       .  S
Fe639       O644   2.086       .  S
Fe639       O650   1.957       .  S
Fe640       O643   2.082       .  S
Fe640       O647   2.054       .  S
Fe640       O651   2.087       .  S
Fe640       O656   2.039       .  S
Fe640       O650   1.959       .  S
Fe641       O659   2.058       .  S
Fe641       O646   2.085       .  S
Fe641       O653   2.083       .  S
Fe641       O642   2.058       .  S
Fe641       O650   1.959       .  S
O642        C649   1.266       .  A
O643        C657   1.269       .  A
O644        C649   1.271       .  A
O645        C648   1.267       .  A
O646        C658   1.273       .  A
O647        C660   1.267       .  A
C648        O653   1.272       .  A
C648        C792   1.429       .  S
C649        C860   1.440       .  S
O651        C654   1.270       .  A
O652        C654   1.266       .  A
C654        C885   1.441       .  S
O655        C660   1.274       .  A
O656        C658   1.265       .  A
C657        O659   1.266       .  A
C657        C760   1.438       .  S
C658        C709   1.425       .  S
C660        C713   1.441       .  S
Fe661       O677   2.058       .  S
Fe661       O667   2.086       .  S
Fe661       O674   2.098       .  S
Fe661       O666   2.046       .  S
Fe661       O672   1.957       .  S
Fe662       O665   2.039       .  S
Fe662       O669   2.087       .  S
Fe662       O673   2.054       .  S
Fe662       O678   2.082       .  S
Fe662       O672   1.960       .  S
Fe663       O681   2.085       .  S
Fe663       O668   2.058       .  S
Fe663       O675   2.058       .  S
Fe663       O664   2.083       .  S
Fe663       O672   1.959       .  S
O664        C671   1.272       .  A
O665        C679   1.266       .  A
O666        C671   1.267       .  A
O667        C670   1.271       .  A
O668        C680   1.266       .  A
O669        C682   1.270       .  A
C670        O675   1.266       .  A
C670        C753   1.440       .  S
C671        C861   1.429       .  S
O673        C676   1.267       .  A
O674        C676   1.274       .  A
C676        C705   1.441       .  S
O677        C682   1.266       .  A
O678        C680   1.269       .  A
C679        O681   1.273       .  A
C679        C728   1.425       .  S
C680        C848   1.438       .  S
C682        C777   1.440       .  S
Fe683       O699   2.058       .  S
Fe683       O689   2.086       .  S
Fe683       O696   2.098       .  S
Fe683       O688   2.046       .  S
Fe683       O694   1.957       .  S
Fe684       O687   2.039       .  S
Fe684       O691   2.087       .  S
Fe684       O695   2.054       .  S
Fe684       O700   2.082       .  S
Fe684       O694   1.959       .  S
Fe685       O703   2.085       .  S
Fe685       O690   2.058       .  S
Fe685       O697   2.058       .  S
Fe685       O686   2.084       .  S
Fe685       O694   1.959       .  S
O686        C693   1.272       .  A
O687        C701   1.265       .  A
O688        C693   1.267       .  A
O689        C692   1.271       .  A
O690        C702   1.266       .  A
O691        C704   1.270       .  A
C692        O697   1.266       .  A
C692        C801   1.439       .  S
C693        C853   1.429       .  S
O695        C698   1.267       .  A
O696        C698   1.274       .  A
C698        C708   1.441       .  S
O699        C704   1.266       .  A
O700        C702   1.269       .  A
C701        O703   1.273       .  A
C701        C712   1.425       .  S
C702        C881   1.438       .  S
C704        C764   1.440       .  S
C705        C706   1.209       .  T
C706        C707   1.418       .  S
C707        C708   1.209       .  T
C709        C710   1.200       .  T
C710        C711   1.404       .  S
C711        C712   1.200       .  T
C713        C714   1.209       .  T
C714        C715   1.418       .  S
C715        C716   1.209       .  T
C717        C718   1.200       .  T
C718        C719   1.404       .  S
C719        C720   1.200       .  T
C721        C722   1.209       .  T
C722        C723   1.418       .  S
C723        C724   1.209       .  T
C725        C726   1.200       .  T
C726        C727   1.404       .  S
C727        C728   1.200       .  T
C729        C730   1.200       .  T
C730        C731   1.404   1_656  S
C731        C732   1.200       .  T
C733        C734   1.209       .  T
C734        C735   1.418       .  S
C735        C736   1.209       .  T
C737        C738   1.203       .  T
C738        C739   1.407       .  S
C739        C740   1.203       .  T
C741        C742   1.208       .  T
C742        C743   1.417       .  S
C743        C744   1.209   1_556  T
C745        C746   1.203       .  T
C746        C747   1.407       .  S
C747        C748   1.203       .  T
C749        C750   1.209       .  T
C750        C751   1.418       .  S
C751        C752   1.209       .  T
C753        C754   1.209       .  T
C754        C755   1.417       .  S
C755        C756   1.208       .  T
C757        C758   1.209       .  T
C758        C759   1.417       .  S
C759        C760   1.208       .  T
C761        C762   1.209       .  T
C762        C763   1.417       .  S
C763        C764   1.209       .  T
C765        C766   1.200       .  T
C766        C767   1.404   1_455  S
C767        C768   1.200       .  T
C769        C770   1.209       .  T
C770        C771   1.418       .  S
C771        C772   1.209       .  T
C773        C774   1.209       .  T
C774        C775   1.417       .  S
C775        C776   1.208       .  T
C777        C778   1.209       .  T
C778        C779   1.417       .  S
C779        C780   1.209       .  T
C781        C782   1.203       .  T
C782        C783   1.407       .  S
C783        C784   1.203       .  T
C785        C786   1.208       .  T
C786        C787   1.417       .  S
C787        C788   1.209       .  T
C789        C790   1.203       .  T
C790        C791   1.407       .  S
C791        C792   1.203       .  T
C793        C794   1.200       .  T
C794        C795   1.404       .  S
C795        C796   1.200       .  T
C797        C798   1.209       .  T
C798        C799   1.418       .  S
C799        C800   1.209       .  T
C801        C802   1.209       .  T
C802        C803   1.417       .  S
C803        C804   1.208       .  T
C805        C806   1.200       .  T
C806        C807   1.404       .  S
C807        C808   1.200       .  T
C809        C810   1.209       .  T
C810        C811   1.417       .  S
C811        C812   1.208       .  T
C813        C814   1.209       .  T
C814        C815   1.417       .  S
C815        C816   1.209       .  T
C817        C818   1.200       .  T
C818        C819   1.404   1_554  S
C819        C820   1.200       .  T
C821        C822   1.209       .  T
C822        C823   1.418       .  S
C823        C824   1.209       .  T
C825        C826   1.209   1_554  T
C826        C827   1.417       .  S
C827        C828   1.208       .  T
C829        C830   1.209       .  T
C830        C831   1.417       .  S
C831        C832   1.209       .  T
C833        C834   1.209   1_556  T
C834        C835   1.417       .  S
C835        C836   1.208       .  T
C837        C838   1.209       .  T
C838        C839   1.417       .  S
C839        C840   1.209       .  T
C841        C842   1.209       .  T
C842        C843   1.418       .  S
C843        C844   1.209       .  T
C845        C846   1.209       .  T
C846        C847   1.417       .  S
C847        C848   1.208       .  T
C849        C850   1.209       .  T
C850        C851   1.417       .  S
C851        C852   1.209       .  T
C853        C854   1.203       .  T
C854        C855   1.407       .  S
C855        C856   1.203       .  T
C857        C858   1.208       .  T
C858        C859   1.417       .  S
C859        C860   1.209       .  T
C861        C862   1.203       .  T
C862        C863   1.407       .  S
C863        C864   1.203       .  T
C865        C866   1.200       .  T
C866        C867   1.404       .  S
C867        C868   1.200       .  T
C869        C870   1.209       .  T
C870        C871   1.418       .  S
C871        C872   1.209       .  T
C873        C874   1.208       .  T
C874        C875   1.417       .  S
C875        C876   1.209       .  T
C877        C878   1.200       .  T
C878        C879   1.404       .  S
C879        C880   1.200       .  T
C881        C882   1.208       .  T
C882        C883   1.417       .  S
C883        C884   1.209       .  T
C885        C886   1.209       .  T
C886        C887   1.417       .  S
C887        C888   1.209       .  T
C889        C890   1.209       .  T
C890        C891   1.418       .  S
C891        C892   1.209       .  T
C893        C894   1.209       .  T
C894        C895   1.417       .  S
C895        C896   1.208       .  T
C897        C898   1.209       .  T
C898        C899   1.417       .  S
C899        C900   1.209       .  T
C901        C902   1.203       .  T
C902        C903   1.407       .  S
C903        C904   1.203       .  T
C905        C906   1.200       .  T
C906        C907   1.404   1_655  S
C907        C908   1.200       .  T
C909        C910   1.208       .  T
C910        C911   1.417       .  S
C911        C912   1.209       .  T
C913        C914   1.203       .  T
C914        C915   1.407       .  S
C915        C916   1.203       .  T
C917        C918   1.200       .  T
C918        C919   1.404   1_554  S
C919        C920   1.200       .  T
C921        C922   1.209       .  T
C922        C923   1.418       .  S
C923        C924   1.209       .  T
C925        C926   1.208       .  T
C926        C927   1.417       .  S
C927        C928   1.209   1_554  T
C929        C930   1.203       .  T
C930        C931   1.407       .  S
C931        C932   1.203       .  T
C933        C934   1.208       .  T
C934        C935   1.417       .  S
C935        C936   1.209       .  T
C937        C938   1.209       .  T
C938        C939   1.417       .  S
C939        C940   1.208       .  T
C941        C942   1.209       .  T
C942        C943   1.417       .  S
C943        C944   1.209       .  T
C945        C946   1.203       .  T
C946        C947   1.407       .  S
C947        C948   1.203       .  T
C949        C950   1.209       .  T
C950        C951   1.418       .  S
C951        C952   1.209       .  T
C953        C954   1.209       .  T
C954        C955   1.417       .  S
C955        C956   1.208       .  T
C957        C958   1.208       .  T
C958        C959   1.417       .  S
C959        C960   1.209       .  T
C961        C962   1.209       .  T
C962        C963   1.417       .  S
C963        C964   1.209       .  T
C965        C966   1.203       .  T
C966        C967   1.407       .  S
C967        C968   1.203       .  T
C969        C970   1.208       .  T
C970        C971   1.417       .  S
C971        C972   1.209   1_554  T
C973        C974   1.209       .  T
C974        C975   1.417       .  S
C975        C976   1.209       .  T
C977        C978   1.209   1_554  T
C978        C979   1.417       .  S
C979        C980   1.208       .  T
C981        C982   1.203       .  T
C982        C983   1.407       .  S
C983        C984   1.203       .  T
C985        C986   1.200       .  T
C986        C987   1.404   1_565  S
C987        C988   1.200       .  T
C989        C990   1.209       .  T
C990        C991   1.418       .  S
C991        C992   1.209       .  T
C993        C994   1.208       .  T
C994        C995   1.417       .  S
C995        C996   1.209       .  T
C997        C998   1.209       .  T
C998        C999   1.417       .  S
C999       C1000   1.209       .  T
C1001      C1002   1.208       .  T
C1002      C1003   1.417       .  S
C1003      C1004   1.209       .  T
C1005      C1006   1.203       .  T
C1006      C1007   1.407       .  S
C1007      C1008   1.203       .  T
C1009      C1010   1.208       .  T
C1010      C1011   1.417       .  S
C1011      C1012   1.209       .  T
C1013      C1014   1.208       .  T
C1014      C1015   1.417       .  S
C1015      C1016   1.209       .  T
C1017      C1018   1.209       .  T
C1018      C1019   1.417       .  S
C1019      C1020   1.209       .  T
C1021      C1022   1.203       .  T
C1022      C1023   1.407       .  S
C1023      C1024   1.203       .  T
C1025      C1026   1.200       .  T
C1026      C1027   1.404   1_564  S
C1027      C1028   1.200       .  T
C1029      C1030   1.209       .  T
C1030      C1031   1.418       .  S
C1031      C1032   1.209       .  T
C1033      C1034   1.208       .  T
C1034      C1035   1.417       .  S
C1035      C1036   1.209   1_554  T
C1037      C1038   1.208       .  T
C1038      C1039   1.417       .  S
C1039      C1040   1.209   1_556  T
C1041      C1042   1.209       .  T
C1042      C1043   1.417       .  S
C1043      C1044   1.209       .  T
C1045      C1046   1.203       .  T
C1046      C1047   1.407       .  S
C1047      C1048   1.203       .  T
C1049      C1050   1.200       .  T
C1050      C1051   1.404   1_545  S
C1051      C1052   1.200       .  T
C1053      C1054   1.208       .  T
C1054      C1055   1.417       .  S
C1055      C1056   1.209       .  T
C1057      C1058   1.209       .  T
C1058      C1059   1.417       .  S
C1059      C1060   1.209       .  T
C1061      C1062   1.209       .  T
C1062      C1063   1.417       .  S
C1063      C1064   1.208       .  T
C1065      C1066   1.203       .  T
C1066      C1067   1.407       .  S
C1067      C1068   1.203       .  T
C1069      C1070   1.200       .  T
C1070      C1071   1.404   1_545  S
C1071      C1072   1.200   1_655  T
C1073      C1074   1.209       .  T
C1074      C1075   1.418       .  S
C1075      C1076   1.209       .  T
C1077      C1078   1.208       .  T
C1078      C1079   1.417       .  S
C1079      C1080   1.209       .  T
C1081      C1082   1.209       .  T
C1082      C1083   1.417       .  S
C1083      C1084   1.209       .  T
C1085      C1086   1.208       .  T
C1086      C1087   1.417       .  S
C1087      C1088   1.209       .  T
