geometry optimzed in LAMMPS
_audit_creation_date              2020-12-01 
_audit_creation_method            'lammps2cif' 
_symmetry_space_group_name_H-M    'P1' 
_symmetry_Int_Tables_number       1 
_symmetry_cell_setting            triclinic 
loop_ 
_symmetry_equiv_pos_as_xyz 
  x,y,z 
_cell_length_a                    58.12253076 
_cell_length_b                    45.81370348284447 
_cell_length_c                    27.60148763142992 
_cell_angle_alpha                 89.9992635729226 
_cell_angle_beta                  90.00634319356054 
_cell_angle_gamma                 90.00063846925994 
loop_ 
_atom_site_label 
_atom_site_type_symbol 
_atom_site_fract_x 
_atom_site_fract_y 
_atom_site_fract_z 
_atom_site_charge 
O1          O  0.76740322  0.36066715  0.66433404    -0.80100
C2          C  0.81854440  0.42139811  0.79721206     0.99300
O3          O  0.81073685  0.39607734  0.79084581    -0.69200
O4          O  0.78244793  0.35509602  0.75949969    -0.72800
Al5        Al  0.80748666  0.37781446  0.72985241     1.49000
C6          C  0.76188317  0.36212703  0.77016036     0.94500
O7          O  0.74893295  0.43686246  0.71087066    -0.79000
O8          O  0.78234070  0.45442328  0.64928334    -0.72600
Al9        Al  0.76085195  0.39920008  0.68975246     1.90100
O10         O  0.77889307  0.45440379  0.74933612    -0.71600
O11         O  0.82384857  0.43193378  0.66184491    -0.71500
O12         O  0.82049672  0.43894366  0.76199508    -0.77100
O13         O  0.83655664  0.39540466  0.70589054    -0.75300
O14         O  0.78968813  0.40618010  0.70774660    -1.11500
O15         O  0.80515709  0.35666086  0.67132321    -0.70700
C16         C  0.78616178  0.34770036  0.65479474     1.00100
C17         C  0.75849457  0.45649125  0.73622965     0.96400
Al18       Al  0.80061730  0.44211575  0.70540528     1.55600
O19         O  0.75260219  0.38409176  0.75102959    -0.75300
C20         C  0.84024994  0.41677247  0.67718630     1.00600
C21         C  0.76991046  0.44050404  0.61935826     0.95500
O22         O  0.76551163  0.41388345  0.62619474    -0.80600
O23         O  0.97679937  0.00881094  0.66426488    -0.80100
C24         C  0.92568049  0.44806724  0.79715072     0.99300
O25         O  0.93348582  0.47338934  0.79078851    -0.69200
O26         O  0.96176672  0.01437157  0.75944287    -0.72800
Al27       Al  0.93672583  0.49166421  0.72979976     1.49000
C28         C  0.98233339  0.00734090  0.77008489     0.94500
O29         O  0.99527446  0.43261856  0.71077842    -0.79000
O30         O  0.96185651  0.41505846  0.64917860    -0.72600
Al31       Al  0.98335242  0.47027788  0.68966726     1.90100
O32         O  0.96531909  0.41505642  0.74922498    -0.71600
O33         O  0.92034471  0.43755945  0.66177847    -0.71500
O34         O  0.92372179  0.43052686  0.76192666    -0.77100
O35         O  0.90765097  0.47408318  0.70584761    -0.75300
O36         O  0.95451912  0.46329840  0.70767100    -1.11500
O37         O  0.93904849  0.01283835  0.67128190    -0.70700
C38         C  0.95804464  0.02179500  0.65475427     1.00100
C39         C  0.98572004  0.41298610  0.73613584     0.96400
Al40       Al  0.94358740  0.42736289  0.70531706     1.55600
O41         O  0.99161261  0.48538097  0.75094183    -0.75300
C42         C  0.90394817  0.45271881  0.67714241     1.00600
C43         C  0.97429252  0.42897608  0.61926442     0.95500
O44         O  0.97868543  0.45559832  0.62610380    -0.80600
O45         O  0.76743112  0.00881456  0.06873890    -0.80100
C46         C  0.81855103  0.44808244  0.93586525     0.99300
O47         O  0.81073926  0.47340178  0.94221889    -0.69200
O48         O  0.78246749  0.01438370  0.97358090    -0.72800
Al49       Al  0.80750514  0.49167477  0.00320692     1.49000
C50         C  0.76190473  0.00734787  0.96292623     0.94500
O51         O  0.74896041  0.43261584  0.02220462    -0.79000
O52         O  0.78236958  0.41506446  0.08384259    -0.72600
Al53       Al  0.76087698  0.47027998  0.04332798     1.90100
O54         O  0.77892576  0.41505592  0.98379106    -0.71600
O55         O  0.82388168  0.43759276  0.07125098    -0.71500
O56         O  0.82051550  0.43054557  0.97109498    -0.77100
O57         O  0.83658284  0.47409319  0.02713887    -0.75300
O58         O  0.78971148  0.46330646  0.02533745    -1.11500
O59         O  0.80518384  0.01284351  0.06172620    -0.70700
C60         C  0.78618695  0.02179808  0.07825432     1.00100
C61         C  0.75852272  0.41298179  0.99686203     0.96400
Al62       Al  0.80064741  0.42737607  0.02770621     1.55600
O63         O  0.75262580  0.48538218  0.98205152    -0.75300
C64         C  0.84028272  0.45273245  0.05585319     1.00600
C65         C  0.76991851  0.42897645  0.11373831     0.95500
O66         O  0.76553150  0.45559977  0.10689666    -0.80600
O67         O  0.97682496  0.36066482  0.06869021    -0.80100
C68         C  0.92567806  0.42137306  0.93581212     0.99300
O69         O  0.93349719  0.39605641  0.94216855    -0.69200
O70         O  0.96178355  0.35507885  0.97354293    -0.72800
Al71       Al  0.93674001  0.37778741  0.00316175     1.49000
C72         C  0.98234470  0.36212020  0.96288449     0.94500
O73         O  0.99526842  0.43687389  0.02213477    -0.79000
O74         O  0.96186144  0.45440606  0.08378292    -0.72600
Al75       Al  0.98336709  0.39920195  0.04326704     1.90100
O76         O  0.96528969  0.45441918  0.98373268    -0.71600
O77         O  0.92036120  0.43185796  0.07121156    -0.71500
O78         O  0.92370514  0.43890576  0.97104509    -0.77100
O79         O  0.90765876  0.39536079  0.02709245    -0.75300
O80         O  0.95452881  0.40616305  0.02528249    -1.11500
O81         O  0.93907096  0.35663214  0.06169074    -0.70700
C82         C  0.95807028  0.34768372  0.07822197     1.00100
C83         C  0.98569448  0.45650345  0.99679503     0.96400
Al84       Al  0.94358119  0.44208708  0.02765379     1.55600
O85         O  0.99161544  0.38409926  0.98198962    -0.75300
C86         C  0.90396013  0.41671565  0.05581781     1.00600
C87         C  0.97431532  0.44049673  0.11368124     0.95500
O88         O  0.97871622  0.41387872  0.10683240    -0.80600
O89         O  0.01554390  0.28889217  0.85681228    -0.80100
C90         C  0.06862403  0.29641077  0.68588724     0.99300
O91         O  0.07059289  0.31393618  0.72113192    -0.69200
O92         O  0.02900522  0.32944682  0.73375003    -0.72800
Al93       Al  0.05069950  0.31710871  0.77770393     1.49000
C94         C  0.00859194  0.33151099  0.74675446     0.94500
O95         O  0.00268570  0.25911010  0.73194367    -0.79000
O96         O  0.05521166  0.23165001  0.81172553    -0.72600
Al97       Al  0.01091490  0.27421346  0.79323592     1.90100
O98         O  0.03252168  0.23009596  0.72353845    -0.71600
O99         O  0.08662548  0.27039170  0.77718819    -0.71500
O100        O  0.06080922  0.27109003  0.69222338    -0.77100
O101        O  0.07390129  0.30687407  0.82130516    -0.75300
O102        O  0.03975582  0.28118244  0.77530173    -1.11500
O103        O  0.03240534  0.32942094  0.83379751    -0.70700
C104        C  0.01994990  0.31550772  0.86367964     1.00100
C105        C  0.01196123  0.23713196  0.71285268     0.96400
Al106      Al  0.05755445  0.25281202  0.75320461     1.55600
O107        O  0.99901573  0.31187828  0.77207878    -0.75300
C108        C  0.09030973  0.29174247  0.80593136     1.00600
C109        C  0.03620847  0.22269697  0.82822335     0.95500
O110        O  0.01745583  0.23567809  0.81866827    -0.80600
O111        O  0.22870388  0.33066324  0.85707490    -0.80100
C112        C  0.17568636  0.32317601  0.68600148     0.99300
O113        O  0.17372351  0.30563448  0.72122432    -0.69200
O114        O  0.21531800  0.29015554  0.73391853    -0.72800
Al115      Al  0.19359649  0.30245643  0.77783785     1.49000
C116        C  0.23572174  0.28808407  0.74699617     0.94500
O117        O  0.24161014  0.36048729  0.73226118    -0.79000
O118        O  0.18904589  0.38792093  0.81190603    -0.72600
Al119      Al  0.23335821  0.34536532  0.79351764     1.90100
O120        O  0.21176405  0.38948049  0.72377446    -0.71600
O121        O  0.15765585  0.34916464  0.77729205    -0.71500
O122        O  0.18349647  0.34849570  0.69237165    -0.77100
O123        O  0.17036753  0.31265857  0.82138580    -0.75300
O124        O  0.20452643  0.33839045  0.77550063    -1.11500
O125        O  0.21187629  0.29012977  0.83397161    -0.70700
C126        C  0.22431942  0.30403663  0.86389434     1.00100
C127        C  0.23233006  0.38245397  0.71313936     0.96400
Al128      Al  0.18672882  0.36675911  0.75337550     1.55600
O129        O  0.24528009  0.30771082  0.77236656    -0.75300
C130        C  0.15396389  0.32779941  0.80600037     1.00600
C131        C  0.20804142  0.39687600  0.82845043     0.95500
O132        O  0.22679752  0.38389181  0.81895223    -0.80600
O133        O  0.01557749  0.33057860  0.37614911    -0.80100
C134        C  0.06858433  0.32311341  0.54723596     0.99300
O135        O  0.07054482  0.30556855  0.51201958    -0.69200
O136        O  0.02894691  0.29008268  0.49932759    -0.72800
Al137      Al  0.05067340  0.30238216  0.45541141     1.49000
C138        C  0.00854724  0.28799797  0.48622458     0.94500
O139        O  0.00263865  0.36040024  0.50094922    -0.79000
O140        O  0.05520687  0.38784962  0.42133111    -0.72600
Al141      Al  0.01090552  0.34527935  0.43969876     1.90100
O142        O  0.03248058  0.38939811  0.50946531    -0.71600
O143        O  0.08659892  0.34911289  0.45593123    -0.71500
O144        O  0.06076553  0.34842827  0.54086338    -0.77100
O145        O  0.07390506  0.31258143  0.41186804    -0.75300
O146        O  0.03973668  0.33831431  0.45773428    -1.11500
O147        O  0.03240328  0.29004840  0.39927752    -0.70700
C148        C  0.01996892  0.30395348  0.36933833     1.00100
C149        C  0.01191285  0.38236693  0.52008514     0.96400
Al150      Al  0.05752513  0.36668989  0.47985974     1.55600
O151        O  0.99898894  0.30761987  0.46084300    -0.75300
C152        C  0.09029904  0.32775103  0.42722264     1.00600
C153        C  0.03621343  0.39679718  0.40477235     0.95500
O154        O  0.01745840  0.38380870  0.41426410    -0.80600
O155        O  0.22872459  0.28896884  0.37636768    -0.80100
C156        C  0.17567624  0.29647534  0.54734381     0.99300
O157        O  0.17371147  0.31400763  0.51210920    -0.69200
O158        O  0.21530927  0.32948904  0.49948810    -0.72800
Al159      Al  0.19360029  0.31718252  0.45553696     1.49000
C160        C  0.23571504  0.33156683  0.48643729     0.94500
O161        O  0.24161944  0.25916819  0.50121091    -0.79000
O162        O  0.18907160  0.23172381  0.42148665    -0.72600
Al163      Al  0.23337362  0.27427940  0.43993201     1.90100
O164        O  0.21177703  0.23016845  0.50966835    -0.71600
O165        O  0.15767346  0.27046295  0.45602111    -0.71500
O166        O  0.18348961  0.27115588  0.54099472    -0.77100
O167        O  0.17038620  0.30697575  0.41194774    -0.75300
O168        O  0.20453703  0.28125155  0.45790276    -1.11500
O169        O  0.21188440  0.32950074  0.39943790    -0.70700
C170        C  0.22432169  0.31558784  0.36952431     1.00100
C171        C  0.23234106  0.23720151  0.52033449     0.96400
Al172      Al  0.18674055  0.25288315  0.48000694     1.55600
O173        O  0.24528328  0.31194177  0.46108409    -0.75300
C174        C  0.15398493  0.29181704  0.42728677     1.00600
C175        C  0.20806710  0.22276919  0.40496055     0.95500
O176        O  0.22682426  0.23574538  0.41449610    -0.80600
O177        O  0.72873343  0.08057590  0.85682526    -0.80100
C178        C  0.67562428  0.07309581  0.68591457     0.99300
O179        O  0.67367443  0.05555423  0.72113848    -0.69200
O180        O  0.71528446  0.04009119  0.73367101    -0.72800
Al181      Al  0.69359080  0.05236796  0.77767331     1.49000
C182        C  0.73569220  0.03800509  0.74671336     0.94500
O183        O  0.74157463  0.11040414  0.73198982    -0.79000
O184        O  0.68905923  0.13781686  0.81181458    -0.72600
Al185      Al  0.73335829  0.09527906  0.79326684     1.90100
O186        O  0.71172641  0.13940375  0.72359892    -0.71600
O187        O  0.65765193  0.09907410  0.77730590    -0.71500
O188        O  0.68342883  0.09841894  0.69227783    -0.77100
O189        O  0.67039804  0.06254667  0.82131061    -0.75300
O190        O  0.70451614  0.08830410  0.77532970    -1.11500
O191        O  0.71190018  0.04003978  0.83373847    -0.70700
C192        C  0.72433668  0.05395442  0.86365788     1.00100
C193        C  0.73228855  0.13237906  0.71290671     0.96400
Al194      Al  0.68670431  0.11667318  0.75327923     1.55600
O195        O  0.74526622  0.05762310  0.77207766    -0.75300
C196        C  0.65398612  0.07771037  0.80603380     1.00600
C197        C  0.70806170  0.14677537  0.82830991     0.95500
O198        O  0.72681584  0.13380637  0.81873377    -0.80600
O199        O  0.51559446  0.03891374  0.85740267    -0.80100
C200        C  0.56859541  0.04640769  0.68633989     0.99300
O201        O  0.57056708  0.06393783  0.72157567    -0.69200
O202        O  0.52898132  0.07945437  0.73428622    -0.72800
Al203      Al  0.55070198  0.06711522  0.77818855     1.49000
C204        C  0.50857816  0.08153174  0.74735936     0.94500
O205        O  0.50264824  0.00912650  0.73257750    -0.79000
O206        O  0.55521528  0.48164243  0.81219230    -0.72600
Al207      Al  0.51092019  0.02423167  0.79384088     1.90100
O208        O  0.53248169  0.48011778  0.72406337    -0.71600
O209        O  0.58661355  0.02037559  0.77759989    -0.71500
O210        O  0.56076762  0.02109401  0.69268491    -0.77100
O211        O  0.57392835  0.05687659  0.82172987    -0.75300
O212        O  0.53975156  0.03119056  0.77582035    -1.11500
O213        O  0.53243995  0.07943902  0.83432415    -0.70700
C214        C  0.51999855  0.06553266  0.86424103     1.00100
C215        C  0.51191546  0.48715663  0.71344205     0.96400
Al216      Al  0.55753188  0.00281397  0.75367518     1.55600
O217        O  0.49901402  0.06190190  0.77271206    -0.75300
C218        C  0.59032081  0.04172694  0.80632576     1.00600
C219        C  0.53622117  0.47269915  0.82874857     0.95500
O220        O  0.51746732  0.48569390  0.81925802    -0.80600
O221        O  0.72866675  0.03889045  0.37622098    -0.80100
C222        C  0.67564905  0.04638065  0.54726459     0.99300
O223        O  0.67367405  0.06390847  0.51202373    -0.69200
O224        O  0.71525521  0.07943497  0.49931872    -0.72800
Al225      Al  0.69354309  0.06708730  0.45540915     1.49000
C226        C  0.73566254  0.08150480  0.48627231     0.94500
O227        O  0.74158595  0.00909937  0.50105343    -0.79000
O228        O  0.68902930  0.48161633  0.42140883    -0.72600
Al229      Al  0.73332626  0.02420608  0.43978740     1.90100
O230        O  0.71175267  0.48008620  0.50953516    -0.71600
O231        O  0.65762821  0.02035358  0.45601195    -0.71500
O232        O  0.68347510  0.02106599  0.54092117    -0.77100
O233        O  0.67032408  0.05683773  0.41185828    -0.75300
O234        O  0.70449337  0.03116419  0.45778957    -1.11500
O235        O  0.71181472  0.07941385  0.39927770    -0.70700
C236        C  0.72426711  0.06550989  0.36937668     1.00100
C237        C  0.73231650  0.48712480  0.52016921     0.96400
Al238      Al  0.68670908  0.00278697  0.47992914     1.55600
O239        O  0.74522999  0.06187355  0.46093012    -0.75300
C240        C  0.65392620  0.04170510  0.42728312     1.00600
C241        C  0.70802669  0.47267385  0.40486376     0.95500
O242        O  0.72677919  0.48567042  0.41436330    -0.80600
O243        O  0.51553197  0.08061456  0.37678628    -0.80100
C244        C  0.56863858  0.07313122  0.54769765     0.99300
O245        O  0.57059587  0.05559622  0.51246638    -0.69200
O246        O  0.52899209  0.04011550  0.49992188    -0.72800
Al247      Al  0.55068097  0.05241064  0.45592591     1.49000
C248        C  0.50858041  0.03803878  0.48690220     0.94500
O249        O  0.50269458  0.11043899  0.50162241    -0.79000
O250        O  0.55521025  0.13786124  0.42181081    -0.72600
Al251      Al  0.51091038  0.09531529  0.44034759     1.90100
O252        O  0.53254094  0.13944228  0.51001147    -0.71600
O253        O  0.58661879  0.09911630  0.45633119    -0.71500
O254        O  0.56083159  0.09845375  0.54134215    -0.77100
O255        O  0.57386845  0.06260880  0.41229026    -0.75300
O256        O  0.53975180  0.08834354  0.45828413    -1.11500
O257        O  0.53237092  0.04008116  0.39985974    -0.70700
C258        C  0.51992838  0.05399391  0.36994860     1.00100
C259        C  0.51197904  0.13241686  0.52069857     0.96400
Al260      Al  0.55756272  0.11671333  0.48034363     1.55600
O261        O  0.49900522  0.05765875  0.46154306    -0.75300
C262        C  0.59028307  0.07775777  0.42759296     1.00600
C263        C  0.53620660  0.14681702  0.40531443     0.95500
O264        O  0.51745352  0.13384227  0.41488149    -0.80600
O265        O  0.72871009  0.33058580  0.35686232    -0.80100
C266        C  0.67561221  0.32306753  0.18594822     0.99300
O267        O  0.67365283  0.30553884  0.22118808    -0.69200
O268        O  0.71525774  0.29006041  0.23375284    -0.72800
Al269      Al  0.69356459  0.30236495  0.27773299     1.49000
C270        C  0.73566886  0.28798664  0.24677971     0.94500
O271        O  0.74155931  0.36038782  0.23201023    -0.79000
O272        O  0.68904010  0.38782608  0.31180018    -0.72600
Al273      Al  0.73333736  0.34527492  0.29329560     1.90100
O274        O  0.71171290  0.38938596  0.22359005    -0.71600
O275        O  0.65763244  0.34907911  0.27731023    -0.71500
O276        O  0.68341717  0.34839213  0.19229399    -0.77100
O277        O  0.67037147  0.31256652  0.32135649    -0.75300
O278        O  0.70449598  0.33829880  0.27535763    -1.11500
O279        O  0.71186975  0.29004882  0.33380641    -0.70700
C280        C  0.72431149  0.30396656  0.36371080     1.00100
C281        C  0.73227523  0.38235807  0.21290732     0.96400
Al282      Al  0.68668818  0.36666534  0.25328009     1.55600
O283        O  0.74524283  0.30761329  0.27212649    -0.75300
C284        C  0.65396234  0.32772784  0.30606038     1.00600
C285        C  0.70804154  0.39678259  0.32830407     0.95500
O286        O  0.72679535  0.38380838  0.31874229    -0.80600
O287        O  0.51556284  0.28893072  0.35739815    -0.80100
C288        C  0.56858292  0.29640448  0.18635029     0.99300
O289        O  0.57054429  0.31394505  0.22157406    -0.69200
O290        O  0.52895154  0.32943918  0.23424927    -0.72800
Al291      Al  0.55067193  0.31712784  0.27817503     1.49000
C292        C  0.50854979  0.33152146  0.24732766     0.94500
O293        O  0.50263732  0.25912009  0.23257863    -0.79000
O294        O  0.55519648  0.23166232  0.31223853    -0.72600
Al295      Al  0.51089781  0.27423548  0.29384011     1.90100
O296        O  0.53247699  0.23011737  0.22409473    -0.71600
O297        O  0.58659257  0.27039750  0.27764668    -0.71500
O298        O  0.56076101  0.27108950  0.19271073    -0.77100
O299        O  0.57389839  0.30691403  0.32173235    -0.75300
O300        O  0.53973080  0.28119884  0.27583078    -1.11500
O301        O  0.53240108  0.32945765  0.33429979    -0.70700
C302        C  0.51996189  0.31555270  0.36422436     1.00100
C303        C  0.51191224  0.23715192  0.21345413     0.96400
Al304      Al  0.55751876  0.25282327  0.25371171     1.55600
O305        O  0.49898677  0.31189754  0.27269291    -0.75300
C306        C  0.59029372  0.29175903  0.30635498     1.00600
C307        C  0.53620077  0.22271407  0.32877920     0.95500
O308        O  0.51744675  0.23570365  0.31927321    -0.80600
O309        O  0.72867973  0.28888855  0.87623548    -0.80100
C310        C  0.67566771  0.29634660  0.04729888     0.99300
O311        O  0.67369733  0.31388379  0.01207038    -0.69200
O312        O  0.71528177  0.32940135  0.99937437    -0.72800
Al313      Al  0.69356489  0.31707322  0.95545680     1.49000
C314        C  0.73568443  0.33148490  0.98630322     0.94500
O315        O  0.74160877  0.25908113  0.00105263    -0.79000
O316        O  0.68904998  0.23160860  0.92140603    -0.72600
Al317      Al  0.73334564  0.27419526  0.93979487     1.90100
O318        O  0.71177585  0.23006554  0.00953028    -0.71600
O319        O  0.65764886  0.27033855  0.95602544    -0.71500
O320        O  0.68349450  0.27103381  0.04094021    -0.77100
O321        O  0.67034153  0.30684057  0.91190589    -0.75300
O322        O  0.70451308  0.28114923  0.95780875    -1.11500
O323        O  0.71183372  0.32941022  0.89932322    -0.70700
C324        C  0.72428004  0.31550968  0.86940531     1.00100
C325        C  0.73234000  0.23710416  0.02016301     0.96400
Al326      Al  0.68672995  0.25276831  0.97993611     1.55600
O327        O  0.74525070  0.31186095  0.96094375    -0.75300
C328        C  0.65394540  0.29169769  0.92731235     1.00600
C329        C  0.70804730  0.22266664  0.90486108     0.95500
O330        O  0.72679958  0.23566272  0.91436168    -0.80600
O331        O  0.51554329  0.33060826  0.87677023    -0.80100
C332        C  0.56864230  0.32311122  0.04769510     0.99300
O333        O  0.57060060  0.30557681  0.01246283    -0.69200
O334        O  0.52899575  0.29010717  0.99990624    -0.72800
Al335      Al  0.55068832  0.30239688  0.95591523     1.49000
C336        C  0.50858471  0.28803378  0.98688115     0.94500
O337        O  0.50270689  0.36043410  0.00160866    -0.79000
O338        O  0.55522878  0.38784979  0.92180768    -0.72600
Al339      Al  0.51092297  0.34531009  0.94033282     1.90100
O340        O  0.53255629  0.38943084  0.01000634    -0.71600
O341        O  0.58663135  0.34909643  0.95633219    -0.71500
O342        O  0.56083973  0.34843572  0.04133710    -0.77100
O343        O  0.57388159  0.31259004  0.91228702    -0.75300
O344        O  0.53976336  0.33833220  0.95827266    -1.11500
O345        O  0.53237716  0.29007146  0.89984265    -0.70700
C346        C  0.51993326  0.30398558  0.86993435     1.00100
C347        C  0.51199373  0.38240808  0.02069205     0.96400
Al348      Al  0.55757629  0.36669810  0.98033946     1.55600
O349        O  0.49901235  0.30765633  0.96152378    -0.75300
C350        C  0.59029639  0.32773733  0.92759555     1.00600
C351        C  0.53622682  0.39680778  0.90530551     0.95500
O352        O  0.51747205  0.38383593  0.91486907    -0.80600
O353        O  0.26746209  0.36075892  0.16450394    -0.80100
C354        C  0.31855933  0.42148154  0.29747282     0.99300
O355        O  0.31073987  0.39616582  0.29111096    -0.69200
O356        O  0.28247138  0.35518348  0.25970058    -0.72800
Al357      Al  0.30751758  0.37789297  0.23011583     1.49000
C358        C  0.26190368  0.36221353  0.27031329     0.94500
O359        O  0.24898267  0.43695478  0.21103531    -0.79000
O360        O  0.28240590  0.45451219  0.14945144    -0.72600
Al361      Al  0.26090157  0.39929160  0.18991723     1.90100
O362        O  0.27894071  0.45451345  0.24949422    -0.71600
O363        O  0.32391261  0.43197387  0.16209356    -0.71500
O364        O  0.32052952  0.43901881  0.26224560    -0.77100
O365        O  0.33660031  0.39547053  0.20622346    -0.75300
O366        O  0.28973129  0.40626278  0.20795840    -1.11500
O367        O  0.30521162  0.35672607  0.17159388    -0.70700
C368        C  0.28622054  0.34777421  0.15502526     1.00100
C369        C  0.25854055  0.45658865  0.23639160     0.96400
Al370      Al  0.30067121  0.44219265  0.20560877     1.55600
O371        O  0.25263039  0.38418013  0.25117468    -0.75300
C372        C  0.34030769  0.41682706  0.17750691     1.00600
C373        C  0.26996045  0.44060465  0.11953433     0.95500
O374        O  0.26557343  0.41397976  0.12635962    -0.80600
O375        O  0.47685675  0.00886051  0.16486116    -0.80100
C376        C  0.42569289  0.44813032  0.29765147     0.99300
O377        O  0.43350823  0.47344966  0.29131090    -0.69200
O378        O  0.46179487  0.01443156  0.25999033    -0.72800
Al379      Al  0.43676060  0.49172609  0.23033075     1.49000
C380        C  0.48235294  0.00738927  0.27067675     0.94500
O381        O  0.49529663  0.43265153  0.21141487    -0.79000
O382        O  0.46190173  0.41512050  0.14971743    -0.72600
Al383      Al  0.48339637  0.47032215  0.19027885     1.90100
O384        O  0.46531183  0.41509554  0.24977017    -0.71600
O385        O  0.42039608  0.43766096  0.16224459    -0.71500
O386        O  0.42372441  0.43060191  0.26241080    -0.77100
O387        O  0.40768695  0.47415578  0.20635537    -0.75300
O388        O  0.45455500  0.46335512  0.20822274    -1.11500
O389        O  0.43910128  0.01288821  0.17181503    -0.70700
C390        C  0.45810297  0.02184007  0.15531071     1.00100
C391        C  0.48572030  0.41301896  0.23673926     0.96400
Al392      Al  0.44361016  0.42743000  0.20582650     1.55600
O393        O  0.49163054  0.48541675  0.25157173    -0.75300
C394        C  0.40399358  0.45280603  0.17761642     1.00600
C395        C  0.47436183  0.42903410  0.11984157     0.95500
O396        O  0.47875931  0.45565222  0.12670287    -0.80600
O397        O  0.26741275  0.00889414  0.56892351    -0.80100
C398        C  0.31858227  0.44816710  0.43613001     0.99300
O399        O  0.31077472  0.47348848  0.44248459    -0.69200
O400        O  0.28247659  0.01446693  0.47378708    -0.72800
Al401      Al  0.30751377  0.49175561  0.50346936     1.49000
C402        C  0.26191625  0.00742644  0.46309550     0.94500
O403        O  0.24896741  0.43269079  0.52237259    -0.79000
O404        O  0.28236419  0.41514685  0.58403432    -0.72600
Al405      Al  0.26087397  0.47035729  0.54350455     1.90100
O406        O  0.27894312  0.41514756  0.48397670    -0.71600
O407        O  0.32387218  0.43765390  0.57151770    -0.71500
O408        O  0.32053936  0.43062786  0.47135694    -0.77100
O409        O  0.33658539  0.47417267  0.52746370    -0.75300
O410        O  0.28971559  0.46338551  0.52555854    -1.11500
O411        O  0.30516833  0.01291363  0.56199351    -0.70700
C412        C  0.28616605  0.02186959  0.57848797     1.00100
C413        C  0.25853830  0.41306459  0.49702903     0.96400
Al414      Al  0.30065196  0.42745442  0.52793005     1.55600
O415        O  0.25263769  0.48545644  0.48221037    -0.75300
C416        C  0.34027667  0.45280672  0.55617532     1.00600
C417        C  0.26992112  0.42906510  0.61393253     0.95500
O418        O  0.26551765  0.45568236  0.60707483    -0.80600
O419        O  0.47681445  0.36070755  0.56926212    -0.80100
C420        C  0.42571407  0.42144179  0.43630950     0.99300
O421        O  0.43352030  0.39612142  0.44268680    -0.69200
O422        O  0.46179728  0.35514301  0.47407705    -0.72800
Al423      Al  0.43675101  0.37785535  0.50368574     1.49000
C424        C  0.48236534  0.36217380  0.46345025     0.94500
O425        O  0.49530141  0.43690328  0.52277241    -0.79000
O426        O  0.46187260  0.45446282  0.58431325    -0.72600
Al427      Al  0.48337331  0.39924111  0.54386392     1.90100
O428        O  0.46535662  0.45445249  0.48426542    -0.71600
O429        O  0.42036323  0.43197105  0.57166670    -0.71500
O430        O  0.42375801  0.43898996  0.47152201    -0.77100
O431        O  0.40767124  0.39544489  0.52759614    -0.75300
O432        O  0.45454292  0.40622135  0.52582466    -1.11500
O433        O  0.43906348  0.35668932  0.56221579    -0.70700
C434        C  0.45805646  0.34772994  0.57876410     1.00100
C435        C  0.48575042  0.45653683  0.49740711     0.96400
Al436      Al  0.44361428  0.44215760  0.52815310     1.55600
O437        O  0.49164261  0.38413585  0.48259787    -0.75300
C438        C  0.40396612  0.41681728  0.55628324     1.00600
C439        C  0.47430014  0.44054527  0.61424807     0.95500
O440        O  0.47869398  0.41392237  0.60741954    -0.80600
O441        O  0.76741663  0.11065601  0.16434902    -0.80100
C442        C  0.81855385  0.17139231  0.29722176     0.99300
O443        O  0.81074511  0.14607143  0.29086061    -0.69200
O444        O  0.78245562  0.10508926  0.25951317    -0.72800
Al445      Al  0.80749835  0.12780291  0.22987117     1.49000
C446        C  0.76189078  0.11212373  0.27016604     0.94500
O447        O  0.74895139  0.18685884  0.21086511    -0.79000
O448        O  0.78236607  0.20440644  0.14926972    -0.72600
Al449      Al  0.76086782  0.14919275  0.18975692     1.90100
O450        O  0.77891310  0.20441119  0.24931412    -0.71600
O451        O  0.82386845  0.18190668  0.16184938    -0.71500
O452        O  0.82051103  0.18893390  0.26199988    -0.77100
O453        O  0.83657350  0.14538837  0.20591997    -0.75300
O454        O  0.78970327  0.15617023  0.20775459    -1.11500
O455        O  0.80517003  0.10664308  0.17134416    -0.70700
C456        C  0.78617379  0.09768393  0.15481554     1.00100
C457        C  0.75851237  0.20649136  0.23621774     0.96400
Al458      Al  0.80063728  0.19210361  0.20539950     1.55600
O459        O  0.75261442  0.13409159  0.25103583    -0.75300
C460        C  0.84026964  0.16675360  0.17721184     1.00600
C461        C  0.76993403  0.19048585  0.11935021     0.95500
O462        O  0.76553110  0.16386765  0.12619659    -0.80600
O463        O  0.97681974  0.25881254  0.16429435    -0.80100
C464        C  0.92568943  0.19807796  0.29716646     0.99300
O465        O  0.93350332  0.22339649  0.29081213    -0.69200
O466        O  0.96179134  0.26437415  0.25947039    -0.72800
Al467      Al  0.93674452  0.24167257  0.22982755     1.49000
C468        C  0.98235706  0.25733705  0.27011254     0.94500
O469        O  0.99528135  0.18260825  0.21080060    -0.79000
O470        O  0.96186165  0.16506528  0.14919570    -0.72600
Al471      Al  0.98336726  0.22027524  0.18969374     1.90100
O472        O  0.96532075  0.16505796  0.24924393    -0.71600
O473        O  0.92035677  0.18758107  0.16179160    -0.71500
O474        O  0.92372755  0.18054016  0.26193985    -0.77100
O475        O  0.90766450  0.22409714  0.20587835    -0.75300
O476        O  0.95453292  0.21330360  0.20769535    -1.11500
O477        O  0.93906882  0.26284500  0.17131120    -0.70700
C478        C  0.95806535  0.27179788  0.15478112     1.00100
C479        C  0.98572070  0.16297793  0.23615388     0.96400
Al480      Al  0.94359410  0.17737256  0.20533329     1.55600
O481        O  0.99163072  0.23537272  0.25097094    -0.75300
C482        C  0.90395996  0.20273412  0.17717001     1.00600
C483        C  0.97429856  0.17898224  0.11928274     0.95500
O484        O  0.97869735  0.20560199  0.12612848    -0.80600
O485        O  0.76743486  0.25882900  0.56872921    -0.80100
C486        C  0.81855383  0.19809069  0.43586840     0.99300
O487        O  0.81073858  0.22340948  0.44221312    -0.69200
O488        O  0.78246486  0.26439320  0.47357453    -0.72800
Al489      Al  0.80750708  0.24168990  0.50319562     1.49000
C490        C  0.76190107  0.25735552  0.46293187     0.94500
O491        O  0.74897035  0.18262350  0.52222470    -0.79000
O492        O  0.78238630  0.16508770  0.58386854    -0.72600
Al493      Al  0.76088370  0.22029175  0.54333341     1.90100
O494        O  0.77893728  0.16505490  0.48382491    -0.71600
O495        O  0.82389379  0.18762498  0.57125919    -0.71500
O496        O  0.82052250  0.18055908  0.47110472    -0.77100
O497        O  0.83658924  0.22411637  0.52712150    -0.75300
O498        O  0.78971768  0.21332077  0.52533937    -1.11500
O499        O  0.80518715  0.26286383  0.56170998    -0.70700
C500        C  0.78618953  0.27181621  0.57823807     1.00100
C501        C  0.75853288  0.16298584  0.49689058     0.96400
Al502      Al  0.80065912  0.17739327  0.52772453     1.55600
O503        O  0.75262755  0.23538562  0.48205518    -0.75300
C504        C  0.84029290  0.20276184  0.55584588     1.00600
C505        C  0.76993345  0.17900203  0.61375704     0.95500
O506        O  0.76554329  0.20562300  0.60690490    -0.80600
O507        O  0.97682348  0.11066678  0.56869334    -0.80100
C508        C  0.92568404  0.17138550  0.43581619     0.99300
O509        O  0.93350154  0.14606820  0.44217019    -0.69200
O510        O  0.96178106  0.10508360  0.47354060    -0.72800
Al511      Al  0.93674213  0.12779956  0.50316132     1.49000
C512        C  0.98234330  0.11211927  0.46288129     0.94500
O513        O  0.99528128  0.18686788  0.52212467    -0.79000
O514        O  0.96187827  0.20441481  0.58377510    -0.72600
Al515      Al  0.98337347  0.14920172  0.54326500     1.90100
O516        O  0.96530469  0.20442345  0.48372669    -0.71600
O517        O  0.92037307  0.18187546  0.57121080    -0.71500
O518        O  0.92371647  0.18892015  0.47104731    -0.77100
O519        O  0.90766431  0.14538124  0.52709253    -0.75300
O520        O  0.95453621  0.15617069  0.52528105    -1.11500
O521        O  0.93906902  0.10664456  0.56168844    -0.70700
C522        C  0.95806615  0.09769012  0.57822062     1.00100
C523        C  0.98571106  0.20649961  0.49678337     0.96400
Al524      Al  0.94359464  0.19209787  0.52765085     1.55600
O525        O  0.99161846  0.13409412  0.48198920    -0.75300
C526        C  0.90396930  0.16673796  0.55581617     1.00600
C527        C  0.97433168  0.19050543  0.61367384     0.95500
O528        O  0.97872791  0.16388529  0.60683004    -0.80600
O529        O  0.01554280  0.03888512  0.35681609    -0.80100
C530        C  0.06859700  0.04640197  0.18585100     0.99300
O531        O  0.07056579  0.06393070  0.22109050    -0.69200
O532        O  0.02897391  0.07942142  0.23371711    -0.72800
Al533      Al  0.05067681  0.06710290  0.27766811     1.49000
C534        C  0.00856430  0.08148888  0.24674460     0.94500
O535        O  0.00266649  0.00908834  0.23196792    -0.79000
O536        O  0.05521068  0.48164710  0.31170943    -0.72600
Al537      Al  0.01090398  0.02419849  0.29324772     1.90100
O538        O  0.03250721  0.48008413  0.22353659    -0.71600
O539        O  0.08661114  0.02039678  0.27715290    -0.71500
O540        O  0.06078501  0.02108088  0.19219616    -0.77100
O541        O  0.07388529  0.05688345  0.32126097    -0.75300
O542        O  0.03974063  0.03117309  0.27528817    -1.11500
O543        O  0.03238697  0.07941829  0.33376723    -0.70700
C544        C  0.01994145  0.06550426  0.36366680     1.00100
C545        C  0.01194380  0.48711506  0.21286632     0.96400
Al546      Al  0.05754085  0.00280677  0.25318476     1.55600
O547        O  0.99899459  0.06185956  0.27208812    -0.75300
C548        C  0.09029412  0.04175141  0.30588977     1.00600
C549        C  0.03621259  0.47269073  0.32822664     0.95500
O550        O  0.01745591  0.48566648  0.31868517    -0.80600
O551        O  0.22868550  0.08065713  0.35702506    -0.80100
C552        C  0.17565516  0.07319782  0.18596719     0.99300
O553        O  0.17369432  0.05565327  0.22118684    -0.69200
O554        O  0.21528678  0.04015780  0.23386609    -0.72800
Al555      Al  0.19357059  0.05246434  0.27779370     1.49000
C556        C  0.23569118  0.03808104  0.24693762     0.94500
O557        O  0.24159127  0.11048584  0.23221917    -0.79000
O558        O  0.18903542  0.13792454  0.31188365    -0.72600
Al559      Al  0.23333981  0.09536069  0.29347127     1.90100
O560        O  0.21175108  0.13949102  0.22375202    -0.71600
O561        O  0.15763750  0.09918103  0.27726233    -0.71500
O562        O  0.18347318  0.09851398  0.19233748    -0.77100
O563        O  0.17034786  0.06267237  0.32135105    -0.75300
O564        O  0.20450655  0.08839520  0.27545890    -1.11500
O565        O  0.21185150  0.04012846  0.33392087    -0.70700
C566        C  0.22429671  0.05403216  0.36384379     1.00100
C567        C  0.23231729  0.13246349  0.21311959     0.96400
Al568      Al  0.18671235  0.11677094  0.25334640     1.55600
O569        O  0.24525385  0.05770443  0.27230848    -0.75300
C570        C  0.15394485  0.07781492  0.30596840     1.00600
C571        C  0.20803355  0.14687391  0.32842311     0.95500
O572        O  0.22678707  0.13388618  0.31891597    -0.80600
O573        O  0.01553972  0.08058435  0.87613881    -0.80100
C574        C  0.06856175  0.07310839  0.04719945     0.99300
O575        O  0.07052059  0.05556562  0.01197989    -0.69200
O576        O  0.02892112  0.04008703  0.99930996    -0.72800
Al577      Al  0.05064241  0.05238305  0.95538192     1.49000
C578        C  0.00851918  0.03800600  0.98622208     0.94500
O579        O  0.00261980  0.11040837  0.00094481    -0.79000
O580        O  0.05518243  0.13784663  0.92130126    -0.72600
Al581      Al  0.01087717  0.09528603  0.93969057     1.90100
O582        O  0.03246573  0.13940155  0.00944333    -0.71600
O583        O  0.08657291  0.09910469  0.95588945    -0.71500
O584        O  0.06074639  0.09842533  0.04083094    -0.77100
O585        O  0.07386790  0.06258070  0.91182462    -0.75300
O586        O  0.03970943  0.08831624  0.95771121    -1.11500
O587        O  0.03236580  0.04005256  0.89925922    -0.70700
C588        C  0.01993127  0.05395970  0.86932408     1.00100
C589        C  0.01189897  0.13237326  0.02007520     0.96400
Al590      Al  0.05750372  0.11668797  0.97982868     1.55600
O591        O  0.99895921  0.05762809  0.96084335    -0.75300
C592        C  0.09026624  0.07774264  0.92717760     1.00600
C593        C  0.03618847  0.14679850  0.90475165     0.95500
O594        O  0.01743231  0.13381438  0.91425160    -0.80600
O595        O  0.22869029  0.03897392  0.87639559    -0.80100
C596        C  0.17561894  0.04648441  0.04732191     0.99300
O597        O  0.17364499  0.06400473  0.01207197    -0.69200
O598        O  0.21523334  0.07952946  0.99945848    -0.72800
Al599      Al  0.19354005  0.06718188  0.95550771     1.49000
C600        C  0.23564626  0.08160014  0.98645086     0.94500
O601        O  0.24157502  0.00919968  0.00125726    -0.79000
O602        O  0.18904706  0.48171686  0.92150631    -0.72600
Al603      Al  0.23333308  0.02429942  0.93996774     1.90100
O604        O  0.21174337  0.48018154  0.00969675    -0.71600
O605        O  0.15763113  0.02044334  0.95601544    -0.71500
O606        O  0.18344134  0.02116698  0.04099350    -0.77100
O607        O  0.17034231  0.05693877  0.91190519    -0.75300
O608        O  0.20449271  0.03125871  0.95791326    -1.11500
O609        O  0.21182760  0.07949932  0.89941966    -0.70700
C610        C  0.22427679  0.06558714  0.86952912     1.00100
C611        C  0.23230507  0.48722313  0.02036745     0.96400
Al612      Al  0.18670278  0.00288295  0.98001861     1.55600
O613        O  0.24522459  0.06197132  0.96112084    -0.75300
C614        C  0.15394164  0.04178515  0.92725723     1.00600
C615        C  0.20804777  0.47277207  0.90499092     0.95500
O616        O  0.22679965  0.48575851  0.91453683    -0.80600
O617        O  0.26741741  0.11074931  0.66454192    -0.80100
C618        C  0.31855186  0.17142154  0.79749644     0.99300
O619        O  0.31072187  0.14611134  0.79113018    -0.69200
O620        O  0.28243307  0.10515417  0.75971051    -0.72800
Al621      Al  0.30748860  0.12784816  0.73013016     1.49000
C622        C  0.26187068  0.11220165  0.77033677     0.94500
O623        O  0.24898146  0.18696034  0.71108054    -0.79000
O624        O  0.28240945  0.20448756  0.64948244    -0.72600
Al625      Al  0.26087928  0.14928663  0.68995835     1.90100
O626        O  0.27895155  0.20449172  0.74953066    -0.71600
O627        O  0.32390221  0.18191551  0.66211263    -0.71500
O628        O  0.32052988  0.18895993  0.76227183    -0.77100
O629        O  0.33658056  0.14540868  0.70624227    -0.75300
O630        O  0.28971379  0.15623344  0.70798749    -1.11500
O631        O  0.30516723  0.10669210  0.67160016    -0.70700
C632        C  0.28616917  0.09775358  0.65504579     1.00100
C633        C  0.25855171  0.20658477  0.73643654     0.96400
Al634      Al  0.30067113  0.19215338  0.70563728     1.55600
O635        O  0.25260815  0.13418205  0.75121837    -0.75300
C636        C  0.34029425  0.16676664  0.67753200     1.00600
C637        C  0.26995846  0.19058712  0.61956592     0.95500
O638        O  0.26555375  0.16396828  0.62640038    -0.80600
O639        O  0.47682084  0.25886563  0.66486168    -0.80100
C640        C  0.42568633  0.19810354  0.79766379     0.99300
O641        O  0.43349791  0.22342529  0.79133020    -0.69200
O642        O  0.46177356  0.26442239  0.76001109    -0.72800
Al643      Al  0.43673828  0.24171103  0.73035637     1.49000
C644        C  0.48233504  0.25738532  0.77068155     0.94500
O645        O  0.49528290  0.18265568  0.71139626    -0.79000
O646        O  0.46188386  0.16511986  0.64970843    -0.72600
Al647      Al  0.48337243  0.22032549  0.69027054     1.90100
O648        O  0.46530458  0.16507995  0.74975188    -0.71600
O649        O  0.42037732  0.18765087  0.66225750    -0.71500
O650        O  0.42371659  0.18057898  0.76241844    -0.77100
O651        O  0.40766339  0.22413144  0.70639342    -0.75300
O652        O  0.45453547  0.21334747  0.70822966    -1.11500
O653        O  0.43906614  0.26288348  0.67184509    -0.70700
C654        C  0.45806340  0.27184196  0.65532672     1.00100
C655        C  0.48571407  0.16301632  0.73672033     0.96400
Al656      Al  0.44359654  0.17741873  0.70582534     1.55600
O657        O  0.49161319  0.23541808  0.75156153    -0.75300
C658        C  0.40397182  0.20278236  0.67765068     1.00600
C659        C  0.47433862  0.17903946  0.61983160     0.95500
O660        O  0.47872995  0.20565892  0.62669458    -0.80600
O661        O  0.26746695  0.25890857  0.06895581    -0.80100
C662        C  0.31858546  0.19811677  0.93615011     0.99300
O663        O  0.31078765  0.22344416  0.94249302    -0.69200
O664        O  0.28251197  0.26445050  0.97379118    -0.72800
Al665      Al  0.30754592  0.24173068  0.00346671     1.49000
C666        C  0.26194514  0.25742409  0.96312984     0.94500
O667        O  0.24897908  0.18271114  0.02246094    -0.79000
O668        O  0.28238397  0.16515521  0.08410477    -0.72600
Al669      Al  0.26090661  0.22037186  0.04356363     1.90100
O670        O  0.27894042  0.16512526  0.98406469    -0.71600
O671        O  0.32389950  0.18763574  0.07153746    -0.71500
O672        O  0.32054077  0.18058430  0.97138681    -0.77100
O673        O  0.33661548  0.22413718  0.02744726    -0.75300
O674        O  0.28974120  0.21337631  0.02559281    -1.11500
O675        O  0.30522145  0.26290936  0.06197749    -0.70700
C676        C  0.28622619  0.27187824  0.07848909     1.00100
C677        C  0.25853431  0.16306920  0.99712475     0.96400
Al678      Al  0.30066481  0.17743773  0.02798119     1.55600
O679        O  0.25266157  0.23546576  0.98227041    -0.75300
C680        C  0.34030568  0.20277744  0.05617176     1.00600
C681        C  0.26994692  0.17908461  0.11399821     0.95500
O682        O  0.26555743  0.20570519  0.10713706    -0.80600
O683        O  0.47685727  0.11070284  0.06924383    -0.80100
C684        C  0.42573055  0.17140881  0.93631003     0.99300
O685        O  0.43354401  0.14609184  0.94268587    -0.69200
O686        O  0.46183183  0.10512442  0.97407810    -0.72800
Al687      Al  0.43678368  0.12783285  0.00368713     1.49000
C688        C  0.48239788  0.11215950  0.96344308     0.94500
O689        O  0.49532421  0.18689995  0.02273770    -0.79000
O690        O  0.46189689  0.20445081  0.08428938    -0.72600
Al691      Al  0.48340590  0.14923555  0.04383871     1.90100
O692        O  0.46537238  0.20443544  0.98423822    -0.71600
O693        O  0.42039187  0.18194644  0.07166415    -0.71500
O694        O  0.42377607  0.18895940  0.97151907    -0.77100
O695        O  0.40770255  0.14541535  0.02760234    -0.75300
O696        O  0.45457236  0.15620549  0.02581130    -1.11500
O697        O  0.43910546  0.10667733  0.06222106    -0.70700
C698        C  0.45810183  0.09772331  0.07875855     1.00100
C699        C  0.48576665  0.20652797  0.99737171     0.96400
Al700      Al  0.44363682  0.19213757  0.02813859     1.55600
O701        O  0.49167167  0.13412956  0.98257271    -0.75300
C702        C  0.40399582  0.16678850  0.05628637     1.00600
C703        C  0.47432671  0.19053664  0.11422412     0.95500
O704        O  0.47872901  0.16391663  0.10739280    -0.80600
C705        C  0.38115276  0.17812926  0.06409054    -0.11500
C706        C  0.36314295  0.19143350  0.06405295    -0.13100
C707        C  0.42055466  0.18086706  0.88788225    -0.11500
C708        C  0.42053793  0.18861101  0.84608347    -0.13100
C709        C  0.32373435  0.18862780  0.88772743    -0.11500
C710        C  0.32372155  0.18088481  0.84592678    -0.13100
C711        C  0.36313558  0.17811190  0.66975611    -0.11500
C712        C  0.38113827  0.19142873  0.66979364    -0.13100
C713        C  0.24888838  0.13512802  0.99227154    -0.11500
C714        C  0.24527959  0.10954467  0.99136065    -0.13100
C715        C  0.24826429  0.09467115  0.80334337    -0.11500
C716        C  0.23621146  0.08108145  0.83131537    -0.13100
C717        C  0.11310165  0.06641283  0.91931938    -0.11500
C718        C  0.13110794  0.05311037  0.91934553    -0.13100
C719        C  0.24591993  0.15001289  0.18013467    -0.11500
C720        C  0.25798833  0.16360159  0.15219134    -0.13100
C721        C  0.17048194  0.06373280  0.13753765    -0.11500
C722        C  0.17046706  0.05598049  0.09574075    -0.13100
C723        C  0.07374579  0.05589105  0.13742624    -0.11500
C724        C  0.07373268  0.06364068  0.09562816    -0.13100
C725        C  0.11312121  0.05311651  0.31375278    -0.11500
C726        C  0.13111387  0.06645205  0.31377817    -0.13100
C727        C  0.00799434  0.08099863  0.40187285    -0.11500
C728        C  0.99593826  0.09458348  0.42985091    -0.13100
C729        C  0.86313123  0.19140935  0.56365329    -0.11500
C730        C  0.88113387  0.17809221  0.56364383    -0.13100
C731        C  0.92052301  0.18086158  0.38739018    -0.11500
C732        C  0.92052522  0.18860415  0.34558991    -0.13100
C733        C  0.99893352  0.10943525  0.24186159    -0.11500
C734        C  0.99534334  0.13502271  0.24097643    -0.13100
C735        C  0.98624407  0.16348871  0.08107670    -0.11500
C736        C  0.99830293  0.14990631  0.05310292    -0.13100
C737        C  0.82371442  0.18861076  0.38744654    -0.11500
C738        C  0.82371522  0.18086575  0.34564825    -0.13100
C739        C  0.86310853  0.17809191  0.16935254    -0.11500
C740        C  0.88111825  0.19139577  0.16933790    -0.13100
C741        C  0.45849505  0.32124309  0.60634855    -0.11500
C742        C  0.45850221  0.29832729  0.62773889    -0.13100
C743        C  0.28571917  0.07126795  0.62746437    -0.11500
C744        C  0.28571659  0.04835213  0.60607736    -0.13100
C745        C  0.24832296  0.02495094  0.43002473    -0.11500
C746        C  0.23625763  0.03852581  0.40203616    -0.13100
C747        C  0.36311486  0.44146635  0.56405790    -0.11500
C748        C  0.38112402  0.42816084  0.56409039    -0.13100
C749        C  0.45855102  0.04832319  0.12772608    -0.11500
C750        C  0.45854634  0.07123888  0.10634041    -0.13100
C751        C  0.42054837  0.43090466  0.38787688    -0.11500
C752        C  0.42053869  0.43864536  0.34607488    -0.13100
C753        C  0.28578898  0.29836743  0.10606538    -0.11500
C754        C  0.28578658  0.32128595  0.12744624    -0.13100
C755        C  0.24891363  0.48454306  0.24120532    -0.11500
C756        C  0.24531937  0.01013062  0.24207805    -0.13100
C757        C  0.25798851  0.45611043  0.08135849    -0.11500
C758        C  0.24591071  0.46969101  0.05340216    -0.13100
C759        C  0.32373718  0.43869036  0.38770353    -0.11500
C760        C  0.32372662  0.43095035  0.34590154    -0.13100
C761        C  0.36314833  0.42816695  0.16970718    -0.11500
C762        C  0.38115688  0.44146991  0.16974008    -0.13100
C763        C  0.49840489  0.39995747  0.05371457    -0.11500
C764        C  0.48633294  0.41354019  0.08166636    -0.13100
C765        C  0.49537779  0.23449349  0.99260509    -0.11500
C766        C  0.49896018  0.26008339  0.99175573    -0.13100
C767        C  0.50798210  0.28849109  0.83172921    -0.11500
C768        C  0.49592654  0.27491157  0.80373738    -0.13100
C769        C  0.63111245  0.30306058  0.91954721    -0.11500
C770        C  0.61311908  0.31639098  0.91964135    -0.13100
C771        C  0.74594271  0.21956728  0.05316655    -0.11500
C772        C  0.75799804  0.20597691  0.08113447    -0.13100
C773        C  0.49534184  0.38506513  0.24159914    -0.11500
C774        C  0.49892805  0.35947623  0.24248306    -0.13100
C775        C  0.50801891  0.33105963  0.40242725    -0.11500
C776        C  0.49596363  0.34464569  0.43040913    -0.13100
C777        C  0.49831511  0.21962104  0.18042313    -0.11500
C778        C  0.48626175  0.20603456  0.15244114    -0.13100
C779        C  0.57376215  0.30587212  0.13792578    -0.11500
C780        C  0.57378506  0.31362289  0.09612721    -0.13100
C781        C  0.67049128  0.30581580  0.09572451    -0.11500
C782        C  0.67046891  0.31357157  0.13752045    -0.13100
C783        C  0.63113386  0.31641026  0.31405327    -0.11500
C784        C  0.61312963  0.30310388  0.31415331    -0.13100
C785        C  0.73625256  0.28847478  0.40192306    -0.11500
C786        C  0.74830421  0.27488654  0.42990393    -0.13100
C787        C  0.74888907  0.23444840  0.24102830    -0.11500
C788        C  0.74529588  0.26003627  0.24190271    -0.13100
C789        C  0.53575571  0.17330241  0.37772788    -0.11500
C790        C  0.53575624  0.19622317  0.35635196    -0.13100
C791        C  0.48631269  0.16355046  0.58165710    -0.11500
C792        C  0.49838772  0.14996801  0.55371176    -0.13100
C793        C  0.49593990  0.02491611  0.30373466    -0.11500
C794        C  0.50798769  0.03849904  0.33173400    -0.13100
C795        C  0.49895641  0.01008810  0.49178984    -0.11500
C796        C  0.49536923  0.48449906  0.49264516    -0.13100
C797        C  0.70847678  0.44618320  0.37728732    -0.11500
C798        C  0.70848721  0.42326562  0.35590068    -0.13100
C799        C  0.63109542  0.05307620  0.41952776    -0.11500
C800        C  0.61310478  0.06641197  0.41963107    -0.13100
C801        C  0.73622527  0.08101439  0.33118528    -0.11500
C802        C  0.74829145  0.09459424  0.30321122    -0.13100
C803        C  0.74889898  0.13503680  0.49204552    -0.11500
C804        C  0.74529659  0.10945148  0.49114976    -0.13100
C805        C  0.53577849  0.44620960  0.85632747    -0.11500
C806        C  0.53577900  0.42329158  0.87771203    -0.13100
C807        C  0.49894950  0.10948352  0.74250087    -0.11500
C808        C  0.49535009  0.13506989  0.74159588    -0.13100
C809        C  0.49599875  0.09462624  0.93041666    -0.11500
C810        C  0.50805590  0.08103740  0.90244430    -0.13100
C811        C  0.57378772  0.06364395  0.59612620    -0.11500
C812        C  0.57377000  0.05588667  0.63792047    -0.13100
C813        C  0.49830748  0.46962795  0.68042368    -0.11500
C814        C  0.48624514  0.45604242  0.65245550    -0.13100
C815        C  0.70849775  0.19617592  0.87728804    -0.11500
C816        C  0.70850803  0.17325718  0.85590638    -0.13100
C817        C  0.67046946  0.06361576  0.63748391    -0.11500
C818        C  0.67048089  0.05586213  0.59568703    -0.13100
C819        C  0.63115982  0.06638322  0.81401889    -0.11500
C820        C  0.61315785  0.05307136  0.81411430    -0.13100
C821        C  0.74587943  0.14992719  0.67987912    -0.11500
C822        C  0.75795699  0.16350664  0.65192911    -0.13100
C823        C  0.20848444  0.17336485  0.35599460    -0.11500
C824        C  0.20850237  0.19628466  0.37737177    -0.13100
C825        C  0.24593773  0.21967288  0.55338911    -0.11500
C826        C  0.25800374  0.20609483  0.58136980    -0.13100
C827        C  0.24830412  0.34467902  0.30333120    -0.11500
C828        C  0.23625548  0.33108616  0.33130934    -0.13100
C829        C  0.24533760  0.35951947  0.49129670    -0.11500
C830        C  0.24892010  0.38510868  0.49218076    -0.13100
C831        C  0.03577244  0.42328587  0.37719322    -0.11500
C832        C  0.03577057  0.44620491  0.35581270    -0.13100
C833        C  0.11313883  0.31643417  0.41936126    -0.11500
C834        C  0.13114993  0.30314142  0.41938044    -0.13100
C835        C  0.99595868  0.27486120  0.30315997    -0.11500
C836        C  0.00801973  0.28844478  0.33114022    -0.13100
C837        C  0.99892455  0.26004223  0.49105745    -0.11500
C838        C  0.99533524  0.23445341  0.49193440    -0.13100
C839        C  0.20848558  0.42336818  0.85602143    -0.11500
C840        C  0.20849517  0.44628757  0.87740080    -0.13100
C841        C  0.17052573  0.31370546  0.63756850    -0.11500
C842        C  0.17052071  0.30595840  0.59576878    -0.13100
C843        C  0.24893946  0.23454633  0.74126356    -0.11500
C844        C  0.24535293  0.26013531  0.74214251    -0.13100
C845        C  0.23628402  0.28853103  0.90208337    -0.11500
C846        C  0.24835086  0.27495234  0.93006534    -0.13100
C847        C  0.24592334  0.39999093  0.68011749    -0.11500
C848        C  0.25797841  0.41357523  0.65214183    -0.13100
C849        C  0.03575573  0.19620871  0.85580093    -0.11500
C850        C  0.03574973  0.17328793  0.87717547    -0.13100
C851        C  0.07377424  0.30590299  0.63746503    -0.11500
C852        C  0.07375863  0.31365077  0.59566596    -0.13100
C853        C  0.11313808  0.30310544  0.81379413    -0.11500
C854        C  0.13113235  0.31643782  0.81381519    -0.13100
C855        C  0.98629581  0.20600594  0.65185940    -0.11500
C856        C  0.99836444  0.21959128  0.67982193    -0.13100
C857        C  0.95851550  0.32120186  0.10581572    -0.11500
C858        C  0.95851083  0.29828607  0.12720385    -0.13100
C859        C  0.99834610  0.46957608  0.17983683    -0.11500
C860        C  0.98627656  0.45599505  0.15187152    -0.13100
C861        C  0.99531102  0.48446216  0.99195217    -0.11500
C862        C  0.99889509  0.01005195  0.99106918    -0.13100
C863        C  0.99594343  0.34458562  0.92985951    -0.11500
C864        C  0.00800122  0.33100084  0.90188478    -0.13100
C865        C  0.78573525  0.07120206  0.12722073    -0.11500
C866        C  0.78574240  0.04828649  0.10583140    -0.13100
C867        C  0.74831578  0.02487464  0.92987634    -0.11500
C868        C  0.73627123  0.03845972  0.90187733    -0.13100
C869        C  0.86311980  0.44137811  0.06366457    -0.11500
C870        C  0.88112324  0.42806255  0.06365120    -0.13100
C871        C  0.75794302  0.41347717  0.15191048    -0.11500
C872        C  0.74586758  0.39989819  0.17986722    -0.13100
C873        C  0.74889573  0.38502856  0.99202997    -0.11500
C874        C  0.74530587  0.35944001  0.99115403    -0.13100
C875        C  0.95849122  0.04828660  0.62718633    -0.11500
C876        C  0.95850425  0.07120569  0.60580762    -0.13100
C877        C  0.00798491  0.03845345  0.83112155    -0.11500
C878        C  0.99592901  0.02486783  0.80313636    -0.13100
C879        C  0.92052077  0.43085020  0.88738179    -0.11500
C880        C  0.92052217  0.43859316  0.84558003    -0.13100
C881        C  0.98624503  0.41348125  0.58106778    -0.11500
C882        C  0.99830974  0.39989893  0.55310362    -0.13100
C883        C  0.99895738  0.35945421  0.74185780    -0.11500
C884        C  0.99535450  0.38503835  0.74096755    -0.13100
C885        C  0.78574140  0.29830606  0.60580806    -0.11500
C886        C  0.78572740  0.32122129  0.62719557    -0.13100
C887        C  0.75797285  0.45599803  0.58114672    -0.11500
C888        C  0.74591811  0.46958952  0.55317835    -0.13100
C889        C  0.74888227  0.48445521  0.74101297    -0.11500
C890        C  0.74530576  0.01004678  0.74185953    -0.13100
C891        C  0.82371078  0.43860753  0.88744006    -0.11500
C892        C  0.82370929  0.43086685  0.84563963    -0.13100
C893        C  0.86308994  0.42810026  0.66930524    -0.11500
C894        C  0.88110502  0.44139150  0.66929069    -0.13100
C895        C  0.73623039  0.33101808  0.83120627    -0.11500
C896        C  0.74828997  0.34459819  0.80321885    -0.13100
O897        O  0.76740326  0.86066717  0.66433408    -0.80100
C898        C  0.81854444  0.92139809  0.79721208     0.99300
O899        O  0.81073688  0.89607733  0.79084583    -0.69200
O900        O  0.78244791  0.85509598  0.75949971    -0.72800
Al901      Al  0.80748668  0.87781446  0.72985243     1.49000
C902        C  0.76188320  0.86212698  0.77016037     0.94500
O903        O  0.74893298  0.93686243  0.71087057    -0.79000
O904        O  0.78234071  0.95442327  0.64928340    -0.72600
Al905      Al  0.76085195  0.89920008  0.68975244     1.90100
O906        O  0.77889308  0.95440379  0.74933613    -0.71600
O907        O  0.82384859  0.93193378  0.66184493    -0.71500
O908        O  0.82049675  0.93894365  0.76199512    -0.77100
O909        O  0.83655669  0.89540466  0.70589054    -0.75300
O910        O  0.78968814  0.90618011  0.70774666    -1.11500
O911        O  0.80515712  0.85666085  0.67132324    -0.70700
C912        C  0.78616181  0.84770032  0.65479471     1.00100
C913        C  0.75849452  0.95649128  0.73622964     0.96400
Al914      Al  0.80061730  0.94211575  0.70540532     1.55600
O915        O  0.75260218  0.88409175  0.75102958    -0.75300
C916        C  0.84024994  0.91677246  0.67718631     1.00600
C917        C  0.76991058  0.94050407  0.61935826     0.95500
O918        O  0.76551169  0.91388344  0.62619470    -0.80600
O919        O  0.97679941  0.50881094  0.66426488    -0.80100
C920        C  0.92568038  0.94806722  0.79715067     0.99300
O921        O  0.93348580  0.97338931  0.79078851    -0.69200
O922        O  0.96176673  0.51437161  0.75944281    -0.72800
Al923      Al  0.93672583  0.99166418  0.72979979     1.49000
C924        C  0.98233336  0.50734094  0.77008494     0.94500
O925        O  0.99527441  0.93261859  0.71077842    -0.79000
O926        O  0.96185646  0.91505843  0.64917865    -0.72600
Al927      Al  0.98335236  0.97027787  0.68966726     1.90100
O928        O  0.96531908  0.91505636  0.74922502    -0.71600
O929        O  0.92034464  0.93755943  0.66177841    -0.71500
O930        O  0.92372177  0.93052681  0.76192666    -0.77100
O931        O  0.90765095  0.97408318  0.70584755    -0.75300
O932        O  0.95451908  0.96329839  0.70767103    -1.11500
O933        O  0.93904850  0.51283836  0.67128185    -0.70700
C934        C  0.95804471  0.52179500  0.65475424     1.00100
C935        C  0.98572008  0.91298607  0.73613589     0.96400
Al936      Al  0.94358737  0.92736287  0.70531706     1.55600
O937        O  0.99161259  0.98538095  0.75094180    -0.75300
C938        C  0.90394816  0.95271882  0.67714237     1.00600
C939        C  0.97429244  0.92897605  0.61926443     0.95500
O940        O  0.97868537  0.95559831  0.62610386    -0.80600
O941        O  0.76743113  0.50881460  0.06873882    -0.80100
C942        C  0.81855104  0.94808242  0.93586525     0.99300
O943        O  0.81073925  0.97340173  0.94221884    -0.69200
O944        O  0.78246751  0.51438372  0.97358092    -0.72800
Al945      Al  0.80750512  0.99167477  0.00320687     1.49000
C946        C  0.76190469  0.50734783  0.96292614     0.94500
O947        O  0.74896037  0.93261578  0.02220451    -0.79000
O948        O  0.78236956  0.91506444  0.08384258    -0.72600
Al949      Al  0.76087695  0.97027996  0.04332798     1.90100
O950        O  0.77892579  0.91505593  0.98379110    -0.71600
O951        O  0.82388174  0.93759275  0.07125105    -0.71500
O952        O  0.82051553  0.93054557  0.97109502    -0.77100
O953        O  0.83658281  0.97409317  0.02713887    -0.75300
O954        O  0.78971143  0.96330647  0.02533745    -1.11500
O955        O  0.80518385  0.51284349  0.06172624    -0.70700
C956        C  0.78618692  0.52179807  0.07825431     1.00100
C957        C  0.75852270  0.91298179  0.99686204     0.96400
Al958      Al  0.80064742  0.92737610  0.02770625     1.55600
O959        O  0.75262578  0.98538217  0.98205160    -0.75300
C960        C  0.84028271  0.95273247  0.05585319     1.00600
C961        C  0.76991853  0.92897640  0.11373833     0.95500
O962        O  0.76553149  0.95559974  0.10689660    -0.80600
O963        O  0.97682501  0.86066477  0.06869028    -0.80100
C964        C  0.92567801  0.92137291  0.93581210     0.99300
O965        O  0.93349716  0.89605638  0.94216856    -0.69200
O966        O  0.96178351  0.85507886  0.97354289    -0.72800
Al967      Al  0.93674003  0.87778741  0.00316182     1.49000
C968        C  0.98234477  0.86212024  0.96288445     0.94500
O969        O  0.99526844  0.93687391  0.02213469    -0.79000
O970        O  0.96186143  0.95440608  0.08378289    -0.72600
Al971      Al  0.98336712  0.89920196  0.04326704     1.90100
O972        O  0.96528969  0.95441916  0.98373260    -0.71600
O973        O  0.92036121  0.93185794  0.07121163    -0.71500
O974        O  0.92370515  0.93890572  0.97104513    -0.77100
O975        O  0.90765876  0.89536080  0.02709250    -0.75300
O976        O  0.95452884  0.90616307  0.02528251    -1.11500
O977        O  0.93907101  0.85663213  0.06169077    -0.70700
C978        C  0.95807038  0.84768365  0.07822201     1.00100
C979        C  0.98569449  0.95650345  0.99679495     0.96400
Al980      Al  0.94358119  0.94208709  0.02765378     1.55600
O981        O  0.99161544  0.88409920  0.98198961    -0.75300
C982        C  0.90396018  0.91671567  0.05581787     1.00600
C983        C  0.97431538  0.94049683  0.11368125     0.95500
O984        O  0.97871623  0.91387873  0.10683234    -0.80600
O985        O  0.01554394  0.78889213  0.85681229    -0.80100
C986        C  0.06862395  0.79641073  0.68588722     0.99300
O987        O  0.07059294  0.81393613  0.72113189    -0.69200
O988        O  0.02900527  0.82944679  0.73374997    -0.72800
Al989      Al  0.05069954  0.81710869  0.77770393     1.49000
C990        C  0.00859203  0.83151104  0.74675446     0.94500
O991        O  0.00268574  0.75911008  0.73194370    -0.79000
O992        O  0.05521170  0.73164995  0.81172554    -0.72600
Al993      Al  0.01091495  0.77421345  0.79323593     1.90100
O994        O  0.03252172  0.73009593  0.72353854    -0.71600
O995        O  0.08662550  0.77039167  0.77718818    -0.71500
O996        O  0.06080926  0.77108998  0.69222340    -0.77100
O997        O  0.07390134  0.80687405  0.82130516    -0.75300
O998        O  0.03975588  0.78118241  0.77530174    -1.11500
O999        O  0.03240535  0.82942093  0.83379750    -0.70700
C1000       C  0.01994990  0.81550770  0.86367964     1.00100
C1001       C  0.01196126  0.73713190  0.71285265     0.96400
Al1002     Al  0.05755449  0.75281198  0.75320465     1.55600
O1003       O  0.99901582  0.81187827  0.77207887    -0.75300
C1004       C  0.09030974  0.79174250  0.80593136     1.00600
C1005       C  0.03620857  0.72269694  0.82822334     0.95500
O1006       O  0.01745586  0.73567809  0.81866825    -0.80600
O1007       O  0.22870389  0.83066324  0.85707487    -0.80100
C1008       C  0.17568637  0.82317605  0.68600146     0.99300
O1009       O  0.17372351  0.80563445  0.72122431    -0.69200
O1010       O  0.21531803  0.79015557  0.73391855    -0.72800
Al1011     Al  0.19359651  0.80245641  0.77783783     1.49000
C1012       C  0.23572179  0.78808408  0.74699609     0.94500
O1013       O  0.24161014  0.86048731  0.73226114    -0.79000
O1014       O  0.18904590  0.88792090  0.81190611    -0.72600
Al1015     Al  0.23335819  0.84536532  0.79351761     1.90100
O1016       O  0.21176404  0.88948046  0.72377442    -0.71600
O1017       O  0.15765586  0.84916462  0.77729207    -0.71500
O1018       O  0.18349646  0.84849571  0.69237168    -0.77100
O1019       O  0.17036757  0.81265857  0.82138582    -0.75300
O1020       O  0.20452642  0.83839043  0.77550058    -1.11500
O1021       O  0.21187629  0.79012978  0.83397158    -0.70700
C1022       C  0.22431949  0.80403665  0.86389427     1.00100
C1023       C  0.23233010  0.88245403  0.71313935     0.96400
Al1024     Al  0.18672882  0.86675911  0.75337549     1.55600
O1025       O  0.24528015  0.80771086  0.77236648    -0.75300
C1026       C  0.15396396  0.82779938  0.80600042     1.00600
C1027       C  0.20804136  0.89687599  0.82845044     0.95500
O1028       O  0.22679750  0.88389174  0.81895223    -0.80600
O1029       O  0.01557749  0.83057856  0.37614907    -0.80100
C1030       C  0.06858422  0.82311339  0.54723594     0.99300
O1031       O  0.07054481  0.80556854  0.51201957    -0.69200
O1032       O  0.02894688  0.79008273  0.49932763    -0.72800
Al1033     Al  0.05067340  0.80238212  0.45541144     1.49000
C1034       C  0.00854718  0.78799796  0.48622459     0.94500
O1035       O  0.00263863  0.86040022  0.50094911    -0.79000
O1036       O  0.05520682  0.88784959  0.42133118    -0.72600
Al1037     Al  0.01090550  0.84527930  0.43969869     1.90100
O1038       O  0.03248056  0.88939806  0.50946539    -0.71600
O1039       O  0.08659890  0.84911288  0.45593119    -0.71500
O1040       O  0.06076553  0.84842826  0.54086338    -0.77100
O1041       O  0.07390503  0.81258141  0.41186803    -0.75300
O1042       O  0.03973667  0.83831424  0.45773430    -1.11500
O1043       O  0.03240325  0.79004834  0.39927752    -0.70700
C1044       C  0.01996895  0.80395337  0.36933837     1.00100
C1045       C  0.01191283  0.88236695  0.52008508     0.96400
Al1046     Al  0.05752509  0.86668987  0.47985974     1.55600
O1047       O  0.99898888  0.80761983  0.46084301    -0.75300
C1048       C  0.09029902  0.82775100  0.42722261     1.00600
C1049       C  0.03621331  0.89679725  0.40477232     0.95500
O1050       O  0.01745836  0.88380872  0.41426400    -0.80600
O1051       O  0.22872453  0.78896883  0.37636764    -0.80100
C1052       C  0.17567616  0.79647547  0.54734378     0.99300
O1053       O  0.17371142  0.81400766  0.51210918    -0.69200
O1054       O  0.21530922  0.82948908  0.49948809    -0.72800
Al1055     Al  0.19360027  0.81718254  0.45553695     1.49000
C1056       C  0.23571504  0.83156691  0.48643729     0.94500
O1057       O  0.24161944  0.75916829  0.50121087    -0.79000
O1058       O  0.18907158  0.73172387  0.42148673    -0.72600
Al1059     Al  0.23337363  0.77427942  0.43993197     1.90100
O1060       O  0.21177702  0.73016856  0.50966848    -0.71600
O1061       O  0.15767343  0.77046297  0.45602108    -0.71500
O1062       O  0.18348957  0.77115593  0.54099474    -0.77100
O1063       O  0.17038618  0.80697578  0.41194777    -0.75300
O1064       O  0.20453703  0.78125156  0.45790279    -1.11500
O1065       O  0.21188436  0.82950078  0.39943788    -0.70700
C1066       C  0.22432170  0.81558785  0.36952427     1.00100
C1067       C  0.23234105  0.73720152  0.52033446     0.96400
Al1068     Al  0.18674053  0.75288319  0.48000699     1.55600
O1069       O  0.24528325  0.81194178  0.46108399    -0.75300
C1070       C  0.15398488  0.79181708  0.42728675     1.00600
C1071       C  0.20806716  0.72276919  0.40496052     0.95500
O1072       O  0.22682425  0.73574543  0.41449618    -0.80600
O1073       O  0.72873342  0.58057594  0.85682529    -0.80100
C1074       C  0.67562433  0.57309580  0.68591453     0.99300
O1075       O  0.67367440  0.55555423  0.72113847    -0.69200
O1076       O  0.71528448  0.54009116  0.73367109    -0.72800
Al1077     Al  0.69359077  0.55236795  0.77767338     1.49000
C1078       C  0.73569219  0.53800514  0.74671343     0.94500
O1079       O  0.74157466  0.61040412  0.73198980    -0.79000
O1080       O  0.68905924  0.63781684  0.81181457    -0.72600
Al1081     Al  0.73335826  0.59527906  0.79326685     1.90100
O1082       O  0.71172647  0.63940376  0.72359886    -0.71600
O1083       O  0.65765195  0.59907408  0.77730577    -0.71500
O1084       O  0.68342891  0.59841892  0.69227784    -0.77100
O1085       O  0.67039799  0.56254665  0.82131066    -0.75300
O1086       O  0.70451611  0.58830410  0.77532970    -1.11500
O1087       O  0.71190020  0.54003981  0.83373847    -0.70700
C1088       C  0.72433672  0.55395443  0.86365790     1.00100
C1089       C  0.73228857  0.63237906  0.71290668     0.96400
Al1090     Al  0.68670434  0.61667317  0.75327919     1.55600
O1091       O  0.74526623  0.55762307  0.77207765    -0.75300
C1092       C  0.65398605  0.57771037  0.80603379     1.00600
C1093       C  0.70806174  0.64677548  0.82830981     0.95500
O1094       O  0.72681585  0.63380640  0.81873380    -0.80600
O1095       O  0.51559443  0.53891379  0.85740262    -0.80100
C1096       C  0.56859545  0.54640772  0.68633994     0.99300
O1097       O  0.57056702  0.56393790  0.72157566    -0.69200
O1098       O  0.52898132  0.57945444  0.73428625    -0.72800
Al1099     Al  0.55070195  0.56711529  0.77818859     1.49000
C1100       C  0.50857820  0.58153184  0.74735931     0.94500
O1101       O  0.50264824  0.50912655  0.73257743    -0.79000
O1102       O  0.55521529  0.98164235  0.81219234    -0.72600
Al1103     Al  0.51092022  0.52423170  0.79384081     1.90100
O1104       O  0.53248172  0.98011776  0.72406333    -0.71600
O1105       O  0.58661354  0.52037563  0.77759993    -0.71500
O1106       O  0.56076758  0.52109405  0.69268496    -0.77100
O1107       O  0.57392832  0.55687664  0.82172993    -0.75300
O1108       O  0.53975157  0.53119061  0.77582036    -1.11500
O1109       O  0.53243988  0.57943910  0.83432416    -0.70700
C1110       C  0.51999846  0.56553280  0.86424112     1.00100
C1111       C  0.51191545  0.98715660  0.71344201     0.96400
Al1112     Al  0.55753189  0.50281402  0.75367516     1.55600
O1113       O  0.49901402  0.56190188  0.77271194    -0.75300
C1114       C  0.59032083  0.54172706  0.80632582     1.00600
C1115       C  0.53622108  0.97269902  0.82874856     0.95500
O1116       O  0.51746732  0.98569383  0.81925801    -0.80600
O1117       O  0.72866675  0.53889045  0.37622100    -0.80100
C1118       C  0.67564910  0.54638075  0.54726456     0.99300
O1119       O  0.67367401  0.56390847  0.51202365    -0.69200
O1120       O  0.71525516  0.57943500  0.49931866    -0.72800
Al1121     Al  0.69354306  0.56708729  0.45540906     1.49000
C1122       C  0.73566249  0.58150484  0.48627231     0.94500
O1123       O  0.74158596  0.50909940  0.50105350    -0.79000
O1124       O  0.68902931  0.98161633  0.42140879    -0.72600
Al1125     Al  0.73332626  0.52420609  0.43978745     1.90100
O1126       O  0.71175267  0.98008617  0.50953519    -0.71600
O1127       O  0.65762823  0.52035359  0.45601196    -0.71500
O1128       O  0.68347513  0.52106604  0.54092111    -0.77100
O1129       O  0.67032405  0.55683772  0.41185821    -0.75300
O1130       O  0.70449337  0.53116419  0.45778953    -1.11500
O1131       O  0.71181469  0.57941384  0.39927760    -0.70700
C1132       C  0.72426711  0.56550986  0.36937673     1.00100
C1133       C  0.73231644  0.98712473  0.52016914     0.96400
Al1134     Al  0.68670907  0.50278700  0.47992916     1.55600
O1135       O  0.74522996  0.56187361  0.46093015    -0.75300
C1136       C  0.65392616  0.54170511  0.42728312     1.00600
C1137       C  0.70802674  0.97267382  0.40486379     0.95500
O1138       O  0.72677919  0.98567041  0.41436323    -0.80600
O1139       O  0.51553201  0.58061456  0.37678620    -0.80100
C1140       C  0.56863859  0.57313120  0.54769767     0.99300
O1141       O  0.57059585  0.55559621  0.51246638    -0.69200
O1142       O  0.52899206  0.54011551  0.49992185    -0.72800
Al1143     Al  0.55068097  0.55241064  0.45592592     1.49000
C1144       C  0.50858034  0.53803884  0.48690221     0.94500
O1145       O  0.50269456  0.61043898  0.50162234    -0.79000
O1146       O  0.55521025  0.63786124  0.42181082    -0.72600
Al1147     Al  0.51091042  0.59531530  0.44034753     1.90100
O1148       O  0.53254092  0.63944224  0.51001157    -0.71600
O1149       O  0.58661878  0.59911628  0.45633121    -0.71500
O1150       O  0.56083161  0.59845375  0.54134217    -0.77100
O1151       O  0.57386847  0.56260877  0.41229022    -0.75300
O1152       O  0.53975184  0.58834353  0.45828417    -1.11500
O1153       O  0.53237091  0.54008116  0.39985980    -0.70700
C1154       C  0.51992838  0.55399395  0.36994858     1.00100
C1155       C  0.51197901  0.63241682  0.52069857     0.96400
Al1156     Al  0.55756275  0.61671331  0.48034367     1.55600
O1157       O  0.49900521  0.55765875  0.46154294    -0.75300
C1158       C  0.59028307  0.57775772  0.42759293     1.00600
C1159       C  0.53620669  0.64681701  0.40531446     0.95500
O1160       O  0.51745353  0.63384226  0.41488152    -0.80600
O1161       O  0.72871010  0.83058582  0.35686228    -0.80100
C1162       C  0.67561214  0.82306754  0.18594825     0.99300
O1163       O  0.67365278  0.80553885  0.22118813    -0.69200
O1164       O  0.71525769  0.79006041  0.23375291    -0.72800
Al1165     Al  0.69356455  0.80236496  0.27773306     1.49000
C1166       C  0.73566886  0.78798659  0.24677975     0.94500
O1167       O  0.74155926  0.86038784  0.23201020    -0.79000
O1168       O  0.68904008  0.88782611  0.31180015    -0.72600
Al1169     Al  0.73333737  0.84527491  0.29329553     1.90100
O1170       O  0.71171283  0.88938599  0.22358997    -0.71600
O1171       O  0.65763238  0.84907918  0.27731019    -0.71500
O1172       O  0.68341711  0.84839215  0.19229395    -0.77100
O1173       O  0.67037146  0.81256660  0.32135651    -0.75300
O1174       O  0.70449592  0.83829883  0.27535764    -1.11500
O1175       O  0.71186973  0.79004883  0.33380649    -0.70700
C1176       C  0.72431145  0.80396661  0.36371081     1.00100
C1177       C  0.73227521  0.88235807  0.21290733     0.96400
Al1178     Al  0.68668813  0.86666540  0.25328004     1.55600
O1179       O  0.74524285  0.80761323  0.27212643    -0.75300
C1180       C  0.65396225  0.82772794  0.30606040     1.00600
C1181       C  0.70804158  0.89678255  0.32830413     0.95500
O1182       O  0.72679536  0.88380838  0.31874222    -0.80600
O1183       O  0.51556286  0.78893071  0.35739815    -0.80100
C1184       C  0.56858292  0.79640444  0.18635028     0.99300
O1185       O  0.57054434  0.81394501  0.22157408    -0.69200
O1186       O  0.52895155  0.82943921  0.23424931    -0.72800
Al1187     Al  0.55067197  0.81712782  0.27817504     1.49000
C1188       C  0.50854987  0.83152139  0.24732766     0.94500
O1189       O  0.50263734  0.75912007  0.23257861    -0.79000
O1190       O  0.55519647  0.73166229  0.31223849    -0.72600
Al1191     Al  0.51089782  0.77423547  0.29384010     1.90100
O1192       O  0.53247698  0.73011731  0.22409476    -0.71600
O1193       O  0.58659253  0.77039744  0.27764660    -0.71500
O1194       O  0.56076100  0.77108947  0.19271075    -0.77100
O1195       O  0.57389836  0.80691397  0.32173232    -0.75300
O1196       O  0.53973082  0.78119881  0.27583079    -1.11500
O1197       O  0.53240113  0.82945762  0.33429988    -0.70700
C1198       C  0.51996194  0.81555265  0.36422430     1.00100
C1199       C  0.51191219  0.73715187  0.21345411     0.96400
Al1200     Al  0.55751873  0.75282323  0.25371169     1.55600
O1201       O  0.49898677  0.81189752  0.27269285    -0.75300
C1202       C  0.59029376  0.79175899  0.30635497     1.00600
C1203       C  0.53620072  0.72271404  0.32877919     0.95500
O1204       O  0.51744675  0.73570361  0.31927325    -0.80600
O1205       O  0.72867977  0.78888857  0.87623548    -0.80100
C1206       C  0.67566766  0.79634654  0.04729892     0.99300
O1207       O  0.67369733  0.81388387  0.01207043    -0.69200
O1208       O  0.71528181  0.82940137  0.99937433    -0.72800
Al1209     Al  0.69356492  0.81707328  0.95545684     1.49000
C1210       C  0.73568445  0.83148491  0.98630320     0.94500
O1211       O  0.74160880  0.75908110  0.00105257    -0.79000
O1212       O  0.68904997  0.73160866  0.92140602    -0.72600
Al1213     Al  0.73334567  0.77419523  0.93979485     1.90100
O1214       O  0.71177585  0.73006554  0.00953030    -0.71600
O1215       O  0.65764885  0.77033855  0.95602537    -0.71500
O1216       O  0.68349454  0.77103388  0.04094020    -0.77100
O1217       O  0.67034157  0.80684062  0.91190595    -0.75300
O1218       O  0.70451311  0.78114926  0.95780875    -1.11500
O1219       O  0.71183377  0.82941024  0.89932326    -0.70700
C1220       C  0.72428002  0.81550964  0.86940521     1.00100
C1221       C  0.73234002  0.73710417  0.02016312     0.96400
Al1222     Al  0.68672996  0.75276833  0.97993610     1.55600
O1223       O  0.74525075  0.81186095  0.96094375    -0.75300
C1224       C  0.65394541  0.79169778  0.92731233     1.00600
C1225       C  0.70804732  0.72266663  0.90486106     0.95500
O1226       O  0.72679960  0.73566266  0.91436162    -0.80600
O1227       O  0.51554335  0.83060829  0.87677027    -0.80100
C1228       C  0.56864240  0.82311120  0.04769509     0.99300
O1229       O  0.57060064  0.80557681  0.01246282    -0.69200
O1230       O  0.52899580  0.79010715  0.99990625    -0.72800
Al1231     Al  0.55068838  0.80239685  0.95591518     1.49000
C1232       C  0.50858478  0.78803379  0.98688114     0.94500
O1233       O  0.50270692  0.86043407  0.00160872    -0.79000
O1234       O  0.55522882  0.88784981  0.92180761    -0.72600
Al1235     Al  0.51092301  0.84531006  0.94033281     1.90100
O1236       O  0.53255631  0.88943082  0.01000641    -0.71600
O1237       O  0.58663138  0.84909648  0.95633218    -0.71500
O1238       O  0.56083977  0.84843573  0.04133712    -0.77100
O1239       O  0.57388161  0.81259007  0.91228700    -0.75300
O1240       O  0.53976344  0.83833218  0.95827265    -1.11500
O1241       O  0.53237725  0.79007145  0.89984262    -0.70700
C1242       C  0.51993327  0.80398550  0.86993436     1.00100
C1243       C  0.51199372  0.88240800  0.02069207     0.96400
Al1244     Al  0.55757633  0.86669811  0.98033946     1.55600
O1245       O  0.49901240  0.80765628  0.96152376    -0.75300
C1246       C  0.59029642  0.82773735  0.92759551     1.00600
C1247       C  0.53622682  0.89680781  0.90530546     0.95500
O1248       O  0.51747207  0.88383591  0.91486917    -0.80600
O1249       O  0.26746210  0.86075895  0.16450397    -0.80100
C1250       C  0.31855935  0.92148151  0.29747281     0.99300
O1251       O  0.31073991  0.89616583  0.29111091    -0.69200
O1252       O  0.28247142  0.85518353  0.25970058    -0.72800
Al1253     Al  0.30751761  0.87789300  0.23011582     1.49000
C1254       C  0.26190375  0.86221345  0.27031334     0.94500
O1255       O  0.24898265  0.93695486  0.21103533    -0.79000
O1256       O  0.28240586  0.95451226  0.14945145    -0.72600
Al1257     Al  0.26090160  0.89929164  0.18991730     1.90100
O1258       O  0.27894071  0.95451351  0.24949417    -0.71600
O1259       O  0.32391264  0.93197392  0.16209357    -0.71500
O1260       O  0.32052947  0.93901886  0.26224563    -0.77100
O1261       O  0.33660033  0.89547059  0.20622346    -0.75300
O1262       O  0.28973132  0.90626286  0.20795844    -1.11500
O1263       O  0.30521162  0.85672609  0.17159388    -0.70700
C1264       C  0.28622064  0.84777425  0.15502526     1.00100
C1265       C  0.25854056  0.95658875  0.23639157     0.96400
Al1266     Al  0.30067121  0.94219272  0.20560880     1.55600
O1267       O  0.25263041  0.88418014  0.25117472    -0.75300
C1268       C  0.34030768  0.91682699  0.17750693     1.00600
C1269       C  0.26996046  0.94060465  0.11953438     0.95500
O1270       O  0.26557346  0.91397980  0.12635963    -0.80600
O1271       O  0.47685674  0.50886050  0.16486122    -0.80100
C1272       C  0.42569289  0.94813036  0.29765145     0.99300
O1273       O  0.43350826  0.97344969  0.29131095    -0.69200
O1274       O  0.46179486  0.51443160  0.25999040    -0.72800
Al1275     Al  0.43676059  0.99172610  0.23033076     1.49000
C1276       C  0.48235295  0.50738926  0.27067676     0.94500
O1277       O  0.49529663  0.93265151  0.21141492    -0.79000
O1278       O  0.46190180  0.91512050  0.14971750    -0.72600
Al1279     Al  0.48339633  0.97032218  0.19027883     1.90100
O1280       O  0.46531186  0.91509557  0.24977019    -0.71600
O1281       O  0.42039608  0.93766091  0.16224455    -0.71500
O1282       O  0.42372442  0.93060195  0.26241078    -0.77100
O1283       O  0.40768699  0.97415574  0.20635538    -0.75300
O1284       O  0.45455498  0.96335516  0.20822273    -1.11500
O1285       O  0.43910127  0.51288824  0.17181504    -0.70700
C1286       C  0.45810307  0.52184001  0.15531069     1.00100
C1287       C  0.48572025  0.91301900  0.23673934     0.96400
Al1288     Al  0.44361018  0.92743004  0.20582650     1.55600
O1289       O  0.49163056  0.98541674  0.25157166    -0.75300
C1290       C  0.40399365  0.95280603  0.17761643     1.00600
C1291       C  0.47436190  0.92903415  0.11984158     0.95500
O1292       O  0.47875934  0.95565220  0.12670283    -0.80600
O1293       O  0.26741273  0.50889405  0.56892349    -0.80100
C1294       C  0.31858223  0.94816707  0.43613001     0.99300
O1295       O  0.31077470  0.97348845  0.44248459    -0.69200
O1296       O  0.28247660  0.51446691  0.47378709    -0.72800
Al1297     Al  0.30751377  0.99175558  0.50346936     1.49000
C1298       C  0.26191621  0.50742640  0.46309551     0.94500
O1299       O  0.24896739  0.93269088  0.52237267    -0.79000
O1300       O  0.28236412  0.91514686  0.58403423    -0.72600
Al1301     Al  0.26087395  0.97035736  0.54350460     1.90100
O1302       O  0.27894308  0.91514761  0.48397674    -0.71600
O1303       O  0.32387216  0.93765386  0.57151768    -0.71500
O1304       O  0.32053928  0.93062780  0.47135693    -0.77100
O1305       O  0.33658540  0.97417260  0.52746367    -0.75300
O1306       O  0.28971554  0.96338552  0.52555852    -1.11500
O1307       O  0.30516830  0.51291365  0.56199350    -0.70700
C1308       C  0.28616606  0.52186951  0.57848795     1.00100
C1309       C  0.25853822  0.91306456  0.49702903     0.96400
Al1310     Al  0.30065191  0.92745442  0.52793005     1.55600
O1311       O  0.25263766  0.98545650  0.48221043    -0.75300
C1312       C  0.34027670  0.95280664  0.55617530     1.00600
C1313       C  0.26992106  0.92906515  0.61393257     0.95500
O1314       O  0.26551762  0.95568240  0.60707484    -0.80600
O1315       O  0.47681446  0.86070754  0.56926205    -0.80100
C1316       C  0.42571407  0.92144178  0.43630953     0.99300
O1317       O  0.43352031  0.89612141  0.44268676    -0.69200
O1318       O  0.46179730  0.85514298  0.47407709    -0.72800
Al1319     Al  0.43675095  0.87785530  0.50368575     1.49000
C1320       C  0.48236525  0.86217377  0.46345028     0.94500
O1321       O  0.49530141  0.93690328  0.52277239    -0.79000
O1322       O  0.46187258  0.95446278  0.58431323    -0.72600
Al1323     Al  0.48337331  0.89924107  0.54386389     1.90100
O1324       O  0.46535660  0.95445252  0.48426549    -0.71600
O1325       O  0.42036319  0.93197101  0.57166670    -0.71500
O1326       O  0.42375800  0.93898992  0.47152204    -0.77100
O1327       O  0.40767117  0.89544485  0.52759615    -0.75300
O1328       O  0.45454292  0.90622127  0.52582465    -1.11500
O1329       O  0.43906346  0.85668930  0.56221585    -0.70700
C1330       C  0.45805640  0.84772994  0.57876415     1.00100
C1331       C  0.48575040  0.95653681  0.49740711     0.96400
Al1332     Al  0.44361426  0.94215755  0.52815312     1.55600
O1333       O  0.49164263  0.88413583  0.48259787    -0.75300
C1334       C  0.40396604  0.91681722  0.55628323     1.00600
C1335       C  0.47430014  0.94054525  0.61424808     0.95500
O1336       O  0.47869399  0.91392234  0.60741950    -0.80600
O1337       O  0.76741662  0.61065601  0.16434894    -0.80100
C1338       C  0.81855386  0.67139227  0.29722177     0.99300
O1339       O  0.81074507  0.64607142  0.29086066    -0.69200
O1340       O  0.78245556  0.60508921  0.25951319    -0.72800
Al1341     Al  0.80749832  0.62780290  0.22987120     1.49000
C1342       C  0.76189080  0.61212369  0.27016599     0.94500
O1343       O  0.74895139  0.68685884  0.21086512    -0.79000
O1344       O  0.78236603  0.70440645  0.14926975    -0.72600
Al1345     Al  0.76086783  0.64919275  0.18975689     1.90100
O1346       O  0.77891309  0.70441120  0.24931413    -0.71600
O1347       O  0.82386843  0.68190665  0.16184939    -0.71500
O1348       O  0.82051103  0.68893387  0.26199991    -0.77100
O1349       O  0.83657347  0.64538839  0.20592001    -0.75300
O1350       O  0.78970327  0.65617022  0.20775459    -1.11500
O1351       O  0.80517000  0.60664307  0.17134415    -0.70700
C1352       C  0.78617369  0.59768393  0.15481554     1.00100
C1353       C  0.75851238  0.70649145  0.23621776     0.96400
Al1354     Al  0.80063725  0.69210360  0.20539953     1.55600
O1355       O  0.75261439  0.63409153  0.25103573    -0.75300
C1356       C  0.84026959  0.66675352  0.17721186     1.00600
C1357       C  0.76993399  0.69048591  0.11935022     0.95500
O1358       O  0.76553108  0.66386766  0.12619658    -0.80600
O1359       O  0.97681980  0.75881253  0.16429434    -0.80100
C1360       C  0.92568944  0.69807795  0.29716647     0.99300
O1361       O  0.93350331  0.72339647  0.29081213    -0.69200
O1362       O  0.96179138  0.76437410  0.25947045    -0.72800
Al1363     Al  0.93674459  0.74167254  0.22982755     1.49000
C1364       C  0.98235712  0.75733702  0.27011253     0.94500
O1365       O  0.99528133  0.68260825  0.21080062    -0.79000
O1366       O  0.96186170  0.66506527  0.14919572    -0.72600
Al1367     Al  0.98336729  0.72027520  0.18969380     1.90100
O1368       O  0.96532073  0.66505798  0.24924403    -0.71600
O1369       O  0.92035675  0.68758104  0.16179154    -0.71500
O1370       O  0.92372756  0.68054015  0.26193980    -0.77100
O1371       O  0.90766457  0.72409711  0.20587837    -0.75300
O1372       O  0.95453296  0.71330353  0.20769537    -1.11500
O1373       O  0.93906889  0.76284500  0.17131119    -0.70700
C1374       C  0.95806550  0.77179792  0.15478105     1.00100
C1375       C  0.98572064  0.66297782  0.23615397     0.96400
Al1376     Al  0.94359412  0.67737253  0.20533333     1.55600
O1377       O  0.99163077  0.73537270  0.25097095    -0.75300
C1378       C  0.90396003  0.70273417  0.17717000     1.00600
C1379       C  0.97429852  0.67898226  0.11928261     0.95500
O1380       O  0.97869739  0.70560200  0.12612849    -0.80600
O1381       O  0.76743492  0.75882903  0.56872917    -0.80100
C1382       C  0.81855383  0.69809066  0.43586837     0.99300
O1383       O  0.81073863  0.72340944  0.44221307    -0.69200
O1384       O  0.78246489  0.76439324  0.47357444    -0.72800
Al1385     Al  0.80750712  0.74168988  0.50319556     1.49000
C1386       C  0.76190109  0.75735551  0.46293190     0.94500
O1387       O  0.74897039  0.68262355  0.52222470    -0.79000
O1388       O  0.78238631  0.66508772  0.58386859    -0.72600
Al1389     Al  0.76088374  0.72029178  0.54333342     1.90100
O1390       O  0.77893731  0.66505484  0.48382501    -0.71600
O1391       O  0.82389383  0.68762498  0.57125918    -0.71500
O1392       O  0.82052255  0.68055905  0.47110474    -0.77100
O1393       O  0.83658931  0.72411633  0.52712138    -0.75300
O1394       O  0.78971770  0.71332079  0.52533934    -1.11500
O1395       O  0.80518723  0.76286381  0.56170991    -0.70700
C1396       C  0.78618961  0.77181626  0.57823805     1.00100
C1397       C  0.75853293  0.66298584  0.49689062     0.96400
Al1398     Al  0.80065914  0.67739329  0.52772458     1.55600
O1399       O  0.75262760  0.73538563  0.48205519    -0.75300
C1400       C  0.84029298  0.70276186  0.55584586     1.00600
C1401       C  0.76993347  0.67900212  0.61375707     0.95500
O1402       O  0.76554332  0.70562301  0.60690494    -0.80600
O1403       O  0.97682344  0.61066674  0.56869335    -0.80100
C1404       C  0.92568395  0.67138549  0.43581620     0.99300
O1405       O  0.93350152  0.64606819  0.44217017    -0.69200
O1406       O  0.96178104  0.60508352  0.47354056    -0.72800
Al1407     Al  0.93674208  0.62779953  0.50316133     1.49000
C1408       C  0.98234320  0.61211922  0.46288123     0.94500
O1409       O  0.99528129  0.68686782  0.52212468    -0.79000
O1410       O  0.96187830  0.70441481  0.58377502    -0.72600
Al1411     Al  0.98337345  0.64920166  0.54326504     1.90100
O1412       O  0.96530470  0.70442342  0.48372665    -0.71600
O1413       O  0.92037309  0.68187547  0.57121075    -0.71500
O1414       O  0.92371651  0.68892017  0.47104726    -0.77100
O1415       O  0.90766427  0.64538123  0.52709263    -0.75300
O1416       O  0.95453622  0.65617063  0.52528104    -1.11500
O1417       O  0.93906898  0.60664454  0.56168841    -0.70700
C1418       C  0.95806602  0.59769010  0.57822063     1.00100
C1419       C  0.98571106  0.70649957  0.49678333     0.96400
Al1420     Al  0.94359466  0.69209786  0.52765081     1.55600
O1421       O  0.99161841  0.63409409  0.48198924    -0.75300
C1422       C  0.90396925  0.66673802  0.55581617     1.00600
C1423       C  0.97433171  0.69050547  0.61367384     0.95500
O1424       O  0.97872786  0.66388525  0.60683006    -0.80600
O1425       O  0.01554278  0.53888516  0.35681608    -0.80100
C1426       C  0.06859700  0.54640210  0.18585107     0.99300
O1427       O  0.07056586  0.56393077  0.22109057    -0.69200
O1428       O  0.02897394  0.57942147  0.23371728    -0.72800
Al1429     Al  0.05067685  0.56710294  0.27766820     1.49000
C1430       C  0.00856426  0.58148894  0.24674464     0.94500
O1431       O  0.00266647  0.50908831  0.23196785    -0.79000
O1432       O  0.05521070  0.98164707  0.31170954    -0.72600
Al1433     Al  0.01090397  0.52419851  0.29324769     1.90100
O1434       O  0.03250721  0.98008410  0.22353666    -0.71600
O1435       O  0.08661112  0.52039677  0.27715286    -0.71500
O1436       O  0.06078502  0.52108095  0.19219619    -0.77100
O1437       O  0.07388532  0.55688343  0.32126104    -0.75300
O1438       O  0.03974064  0.53117311  0.27528812    -1.11500
O1439       O  0.03238699  0.57941831  0.33376735    -0.70700
C1440       C  0.01994144  0.56550427  0.36366680     1.00100
C1441       C  0.01194376  0.98711497  0.21286632     0.96400
Al1442     Al  0.05754086  0.50280679  0.25318465     1.55600
O1443       O  0.99899456  0.56185952  0.27208805    -0.75300
C1444       C  0.09029407  0.54175139  0.30588979     1.00600
C1445       C  0.03621253  0.97269068  0.32822670     0.95500
O1446       O  0.01745592  0.98566648  0.31868515    -0.80600
O1447       O  0.22868546  0.58065713  0.35702508    -0.80100
C1448       C  0.17565525  0.57319781  0.18596718     0.99300
O1449       O  0.17369431  0.55565326  0.22118685    -0.69200
O1450       O  0.21528679  0.54015778  0.23386607    -0.72800
Al1451     Al  0.19357059  0.55246433  0.27779369     1.49000
C1452       C  0.23569118  0.53808101  0.24693764     0.94500
O1453       O  0.24159125  0.61048585  0.23221928    -0.79000
O1454       O  0.18903538  0.63792452  0.31188356    -0.72600
Al1455     Al  0.23333980  0.59536070  0.29347136     1.90100
O1456       O  0.21175105  0.63949099  0.22375200    -0.71600
O1457       O  0.15763754  0.59918097  0.27726230    -0.71500
O1458       O  0.18347315  0.59851396  0.19233749    -0.77100
O1459       O  0.17034787  0.56267234  0.32135106    -0.75300
O1460       O  0.20450653  0.58839521  0.27545893    -1.11500
O1461       O  0.21185149  0.54012844  0.33392080    -0.70700
C1462       C  0.22429669  0.55403212  0.36384378     1.00100
C1463       C  0.23231729  0.63246340  0.21311956     0.96400
Al1464     Al  0.18671233  0.61677092  0.25334640     1.55600
O1465       O  0.24525385  0.55770444  0.27230850    -0.75300
C1466       C  0.15394494  0.57781487  0.30596833     1.00600
C1467       C  0.20803357  0.64687399  0.32842310     0.95500
O1468       O  0.22678705  0.63388619  0.31891602    -0.80600
O1469       O  0.01553967  0.58058436  0.87613885    -0.80100
C1470       C  0.06856175  0.57310842  0.04719949     0.99300
O1471       O  0.07052048  0.55556560  0.01197994    -0.69200
O1472       O  0.02892108  0.54008709  0.99930992    -0.72800
Al1473     Al  0.05064237  0.55238306  0.95538193     1.49000
C1474       C  0.00851913  0.53800607  0.98622207     0.94500
O1475       O  0.00261979  0.61040847  0.00094474    -0.79000
O1476       O  0.05518243  0.63784664  0.92130121    -0.72600
Al1477     Al  0.01087718  0.59528608  0.93969058     1.90100
O1478       O  0.03246576  0.63940159  0.00944338    -0.71600
O1479       O  0.08657292  0.59910467  0.95588946    -0.71500
O1480       O  0.06074637  0.59842535  0.04083094    -0.77100
O1481       O  0.07386790  0.56258065  0.91182467    -0.75300
O1482       O  0.03970943  0.58831626  0.95771118    -1.11500
O1483       O  0.03236574  0.54005257  0.89925932    -0.70700
C1484       C  0.01993123  0.55395970  0.86932417     1.00100
C1485       C  0.01189897  0.63237343  0.02007510     0.96400
Al1486     Al  0.05750373  0.61668797  0.97982866     1.55600
O1487       O  0.99895917  0.55762815  0.96084337    -0.75300
C1488       C  0.09026627  0.57774262  0.92717766     1.00600
C1489       C  0.03618851  0.64679851  0.90475161     0.95500
O1490       O  0.01743233  0.63381440  0.91425157    -0.80600
O1491       O  0.22869023  0.53897393  0.87639553    -0.80100
C1492       C  0.17561892  0.54648431  0.04732191     0.99300
O1493       O  0.17364501  0.56400476  0.01207199    -0.69200
O1494       O  0.21523335  0.57952952  0.99945852    -0.72800
Al1495     Al  0.19354007  0.56718192  0.95550773     1.49000
C1496       C  0.23564627  0.58160019  0.98645087     0.94500
O1497       O  0.24157498  0.50919970  0.00125726    -0.79000
O1498       O  0.18904711  0.98171688  0.92150634    -0.72600
Al1499     Al  0.23333300  0.52429942  0.93996772     1.90100
O1500       O  0.21174342  0.98018151  0.00969677    -0.71600
O1501       O  0.15763107  0.52044339  0.95601542    -0.71500
O1502       O  0.18344127  0.52116698  0.04099348    -0.77100
O1503       O  0.17034230  0.55693883  0.91190519    -0.75300
O1504       O  0.20449264  0.53125874  0.95791327    -1.11500
O1505       O  0.21182764  0.57949938  0.89941963    -0.70700
C1506       C  0.22427678  0.56558715  0.86952911     1.00100
C1507       C  0.23230508  0.98722314  0.02036742     0.96400
Al1508     Al  0.18670271  0.50288296  0.98001860     1.55600
O1509       O  0.24522456  0.56197132  0.96112081    -0.75300
C1510       C  0.15394159  0.54178520  0.92725724     1.00600
C1511       C  0.20804790  0.97277207  0.90499091     0.95500
O1512       O  0.22679971  0.98575850  0.91453680    -0.80600
O1513       O  0.26741743  0.61074932  0.66454193    -0.80100
C1514       C  0.31855183  0.67142158  0.79749644     0.99300
O1515       O  0.31072189  0.64611130  0.79113020    -0.69200
O1516       O  0.28243305  0.60515412  0.75971053    -0.72800
Al1517     Al  0.30748859  0.62784815  0.73013018     1.49000
C1518       C  0.26187069  0.61220162  0.77033678     0.94500
O1519       O  0.24898145  0.68696025  0.71108055    -0.79000
O1520       O  0.28240942  0.70448754  0.64948248    -0.72600
Al1521     Al  0.26087929  0.64928661  0.68995839     1.90100
O1522       O  0.27895152  0.70449169  0.74953067    -0.71600
O1523       O  0.32390219  0.68191552  0.66211263    -0.71500
O1524       O  0.32052985  0.68895993  0.76227188    -0.77100
O1525       O  0.33658052  0.64540870  0.70624232    -0.75300
O1526       O  0.28971381  0.65623344  0.70798750    -1.11500
O1527       O  0.30516722  0.60669209  0.67160020    -0.70700
C1528       C  0.28616912  0.59775362  0.65504587     1.00100
C1529       C  0.25855169  0.70658476  0.73643652     0.96400
Al1530     Al  0.30067111  0.69215341  0.70563731     1.55600
O1531       O  0.25260815  0.63418199  0.75121841    -0.75300
C1532       C  0.34029414  0.66676665  0.67753204     1.00600
C1533       C  0.26995851  0.69058718  0.61956587     0.95500
O1534       O  0.26555371  0.66396826  0.62640039    -0.80600
O1535       O  0.47682086  0.75886568  0.66486159    -0.80100
C1536       C  0.42568625  0.69810344  0.79766373     0.99300
O1537       O  0.43349791  0.72342528  0.79133020    -0.69200
O1538       O  0.46177355  0.76442237  0.76001116    -0.72800
Al1539     Al  0.43673829  0.74171104  0.73035643     1.49000
C1540       C  0.48233512  0.75738539  0.77068160     0.94500
O1541       O  0.49528286  0.68265573  0.71139618    -0.79000
O1542       O  0.46188382  0.66511986  0.64970838    -0.72600
Al1543     Al  0.48337242  0.72032552  0.69027051     1.90100
O1544       O  0.46530455  0.66507996  0.74975180    -0.71600
O1545       O  0.42037730  0.68765094  0.66225757    -0.71500
O1546       O  0.42371658  0.68057898  0.76241846    -0.77100
O1547       O  0.40766338  0.72413152  0.70639338    -0.75300
O1548       O  0.45453548  0.71334751  0.70822966    -1.11500
O1549       O  0.43906616  0.76288349  0.67184516    -0.70700
C1550       C  0.45806345  0.77184200  0.65532672     1.00100
C1551       C  0.48571407  0.66301637  0.73672031     0.96400
Al1552     Al  0.44359654  0.67741877  0.70582533     1.55600
O1553       O  0.49161319  0.73541808  0.75156149    -0.75300
C1554       C  0.40397187  0.70278246  0.67765073     1.00600
C1555       C  0.47433860  0.67903953  0.61983154     0.95500
O1556       O  0.47872995  0.70565889  0.62669459    -0.80600
O1557       O  0.26746702  0.75890862  0.06895577    -0.80100
C1558       C  0.31858549  0.69811683  0.93615007     0.99300
O1559       O  0.31078768  0.72344417  0.94249302    -0.69200
O1560       O  0.28251203  0.76445052  0.97379116    -0.72800
Al1561     Al  0.30754594  0.74173068  0.00346673     1.49000
C1562       C  0.26194524  0.75742419  0.96312988     0.94500
O1563       O  0.24897907  0.68271116  0.02246094    -0.79000
O1564       O  0.28238399  0.66515522  0.08410478    -0.72600
Al1565     Al  0.26090661  0.72037192  0.04356363     1.90100
O1566       O  0.27894045  0.66512527  0.98406472    -0.71600
O1567       O  0.32389952  0.68763577  0.07153748    -0.71500
O1568       O  0.32054082  0.68058432  0.97138681    -0.77100
O1569       O  0.33661547  0.72413716  0.02744725    -0.75300
O1570       O  0.28974117  0.71337634  0.02559278    -1.11500
O1571       O  0.30522152  0.76290940  0.06197761    -0.70700
C1572       C  0.28622624  0.77187827  0.07848914     1.00100
C1573       C  0.25853429  0.66306923  0.99712474     0.96400
Al1574     Al  0.30066481  0.67743776  0.02798122     1.55600
O1575       O  0.25266162  0.73546579  0.98227043    -0.75300
C1576       C  0.34030567  0.70277745  0.05617175     1.00600
C1577       C  0.26994690  0.67908470  0.11399815     0.95500
O1578       O  0.26555746  0.70570522  0.10713702    -0.80600
O1579       O  0.47685724  0.61070286  0.06924383    -0.80100
C1580       C  0.42573054  0.67140881  0.93630996     0.99300
O1581       O  0.43354395  0.64609181  0.94268588    -0.69200
O1582       O  0.46183179  0.60512440  0.97407809    -0.72800
Al1583     Al  0.43678365  0.62783281  0.00368710     1.49000
C1584       C  0.48239788  0.61215940  0.96344306     0.94500
O1585       O  0.49532419  0.68689996  0.02273769    -0.79000
O1586       O  0.46189684  0.70445082  0.08428943    -0.72600
Al1587     Al  0.48340584  0.64923556  0.04383868     1.90100
O1588       O  0.46537234  0.70443547  0.98423831    -0.71600
O1589       O  0.42039180  0.68194642  0.07166412    -0.71500
O1590       O  0.42377602  0.68895939  0.97151906    -0.77100
O1591       O  0.40770252  0.64541530  0.02760228    -0.75300
O1592       O  0.45457228  0.65620551  0.02581131    -1.11500
O1593       O  0.43910546  0.60667732  0.06222105    -0.70700
C1594       C  0.45810183  0.59772337  0.07875849     1.00100
C1595       C  0.48576665  0.70652794  0.99737173     0.96400
Al1596     Al  0.44363676  0.69213757  0.02813863     1.55600
O1597       O  0.49167159  0.63412961  0.98257269    -0.75300
C1598       C  0.40399578  0.66678837  0.05628637     1.00600
C1599       C  0.47432673  0.69053665  0.11422418     0.95500
O1600       O  0.47872896  0.66391662  0.10739279    -0.80600
C1601       C  0.38115275  0.67812922  0.06409057    -0.11500
C1602       C  0.36314299  0.69143350  0.06405300    -0.13100
C1603       C  0.42055463  0.68086703  0.88788227    -0.11500
C1604       C  0.42053795  0.68861101  0.84608347    -0.13100
C1605       C  0.32373426  0.68862784  0.88772740    -0.11500
C1606       C  0.32372152  0.68088486  0.84592675    -0.13100
C1607       C  0.36313561  0.67811200  0.66975607    -0.11500
C1608       C  0.38113814  0.69142875  0.66979364    -0.13100
C1609       C  0.24888841  0.63512811  0.99227164    -0.11500
C1610       C  0.24527956  0.60954472  0.99136066    -0.13100
C1611       C  0.24826429  0.59467108  0.80334340    -0.11500
C1612       C  0.23621150  0.58108142  0.83131532    -0.13100
C1613       C  0.11310166  0.56641285  0.91931940    -0.11500
C1614       C  0.13110793  0.55311035  0.91934552    -0.13100
C1615       C  0.24591998  0.65001288  0.18013466    -0.11500
C1616       C  0.25798832  0.66360164  0.15219136    -0.13100
C1617       C  0.17048190  0.56373279  0.13753762    -0.11500
C1618       C  0.17046705  0.55598050  0.09574079    -0.13100
C1619       C  0.07374578  0.55589110  0.13742629    -0.11500
C1620       C  0.07373272  0.56364068  0.09562816    -0.13100
C1621       C  0.11312128  0.55311655  0.31375279    -0.11500
C1622       C  0.13111380  0.56645208  0.31377822    -0.13100
C1623       C  0.00799431  0.58099862  0.40187293    -0.11500
C1624       C  0.99593827  0.59458350  0.42985091    -0.13100
C1625       C  0.86313119  0.69140934  0.56365328    -0.11500
C1626       C  0.88113388  0.67809223  0.56364387    -0.13100
C1627       C  0.92052296  0.68086158  0.38739018    -0.11500
C1628       C  0.92052519  0.68860414  0.34558986    -0.13100
C1629       C  0.99893351  0.60943520  0.24186156    -0.11500
C1630       C  0.99534332  0.63502275  0.24097643    -0.13100
C1631       C  0.98624412  0.66348874  0.08107679    -0.11500
C1632       C  0.99830298  0.64990641  0.05310294    -0.13100
C1633       C  0.82371445  0.68861073  0.38744653    -0.11500
C1634       C  0.82371522  0.68086570  0.34564827    -0.13100
C1635       C  0.86310856  0.67809190  0.16935261    -0.11500
C1636       C  0.88111820  0.69139582  0.16933793    -0.13100
C1637       C  0.45849507  0.82124312  0.60634848    -0.11500
C1638       C  0.45850222  0.79832731  0.62773880    -0.13100
C1639       C  0.28571918  0.57126791  0.62746434    -0.11500
C1640       C  0.28571657  0.54835216  0.60607734    -0.13100
C1641       C  0.24832295  0.52495090  0.43002470    -0.11500
C1642       C  0.23625765  0.53852582  0.40203603    -0.13100
C1643       C  0.36311481  0.94146626  0.56405787    -0.11500
C1644       C  0.38112401  0.92816074  0.56409036    -0.13100
C1645       C  0.45855105  0.54832323  0.12772604    -0.11500
C1646       C  0.45854632  0.57123885  0.10634043    -0.13100
C1647       C  0.42054828  0.93090466  0.38787686    -0.11500
C1648       C  0.42053867  0.93864530  0.34607489    -0.13100
C1649       C  0.28578897  0.79836746  0.10606549    -0.11500
C1650       C  0.28578663  0.82128597  0.12744632    -0.13100
C1651       C  0.24891359  0.98454310  0.24120532    -0.11500
C1652       C  0.24531947  0.51013060  0.24207807    -0.13100
C1653       C  0.25798852  0.95611044  0.08135838    -0.11500
C1654       C  0.24591081  0.96969100  0.05340213    -0.13100
C1655       C  0.32373721  0.93869036  0.38770351    -0.11500
C1656       C  0.32372662  0.93095039  0.34590151    -0.13100
C1657       C  0.36314840  0.92816700  0.16970714    -0.11500
C1658       C  0.38115683  0.94146987  0.16974009    -0.13100
C1659       C  0.49840485  0.89995744  0.05371457    -0.11500
C1660       C  0.48633297  0.91354017  0.08166632    -0.13100
C1661       C  0.49537772  0.73449352  0.99260510    -0.11500
C1662       C  0.49896027  0.76008335  0.99175575    -0.13100
C1663       C  0.50798214  0.78849113  0.83172939    -0.11500
C1664       C  0.49592654  0.77491155  0.80373737    -0.13100
C1665       C  0.63111245  0.80306058  0.91954711    -0.11500
C1666       C  0.61311906  0.81639099  0.91964133    -0.13100
C1667       C  0.74594266  0.71956736  0.05316662    -0.11500
C1668       C  0.75799804  0.70597689  0.08113455    -0.13100
C1669       C  0.49534182  0.88506499  0.24159917    -0.11500
C1670       C  0.49892804  0.85947627  0.24248303    -0.13100
C1671       C  0.50801883  0.83105962  0.40242730    -0.11500
C1672       C  0.49596367  0.84464562  0.43040911    -0.13100
C1673       C  0.49831516  0.71962105  0.18042315    -0.11500
C1674       C  0.48626169  0.70603453  0.15244110    -0.13100
C1675       C  0.57376205  0.80587206  0.13792578    -0.11500
C1676       C  0.57378509  0.81362284  0.09612718    -0.13100
C1677       C  0.67049125  0.80581580  0.09572454    -0.11500
C1678       C  0.67046884  0.81357157  0.13752047    -0.13100
C1679       C  0.63113390  0.81641028  0.31405327    -0.11500
C1680       C  0.61312958  0.80310376  0.31415329    -0.13100
C1681       C  0.73625263  0.78847477  0.40192300    -0.11500
C1682       C  0.74830419  0.77488654  0.42990381    -0.13100
C1683       C  0.74888913  0.73444840  0.24102832    -0.11500
C1684       C  0.74529584  0.76003630  0.24190275    -0.13100
C1685       C  0.53575573  0.67330238  0.37772788    -0.11500
C1686       C  0.53575628  0.69622313  0.35635197    -0.13100
C1687       C  0.48631264  0.66355049  0.58165705    -0.11500
C1688       C  0.49838766  0.64996801  0.55371178    -0.13100
C1689       C  0.49593994  0.52491612  0.30373470    -0.11500
C1690       C  0.50798768  0.53849905  0.33173399    -0.13100
C1691       C  0.49895643  0.51008814  0.49178986    -0.11500
C1692       C  0.49536917  0.98449907  0.49264512    -0.13100
C1693       C  0.70847677  0.94618319  0.37728726    -0.11500
C1694       C  0.70848719  0.92326560  0.35590062    -0.13100
C1695       C  0.63109538  0.55307613  0.41952779    -0.11500
C1696       C  0.61310475  0.56641197  0.41963101    -0.13100
C1697       C  0.73622530  0.58101439  0.33118523    -0.11500
C1698       C  0.74829137  0.59459420  0.30321124    -0.13100
C1699       C  0.74889895  0.63503684  0.49204555    -0.11500
C1700       C  0.74529654  0.60945154  0.49114976    -0.13100
C1701       C  0.53577847  0.94620958  0.85632749    -0.11500
C1702       C  0.53577896  0.92329151  0.87771210    -0.13100
C1703       C  0.49894947  0.60948355  0.74250080    -0.11500
C1704       C  0.49535002  0.63506997  0.74159583    -0.13100
C1705       C  0.49599867  0.59462632  0.93041674    -0.11500
C1706       C  0.50805598  0.58103744  0.90244427    -0.13100
C1707       C  0.57378779  0.56364391  0.59612615    -0.11500
C1708       C  0.57376999  0.55588664  0.63792046    -0.13100
C1709       C  0.49830749  0.96962795  0.68042369    -0.11500
C1710       C  0.48624505  0.95604240  0.65245550    -0.13100
C1711       C  0.70849770  0.69617600  0.87728792    -0.11500
C1712       C  0.70850802  0.67325724  0.85590634    -0.13100
C1713       C  0.67046953  0.56361579  0.63748390    -0.11500
C1714       C  0.67048091  0.55586211  0.59568699    -0.13100
C1715       C  0.63115984  0.56638329  0.81401886    -0.11500
C1716       C  0.61315779  0.55307135  0.81411434    -0.13100
C1717       C  0.74587948  0.64992721  0.67987908    -0.11500
C1718       C  0.75795700  0.66350668  0.65192917    -0.13100
C1719       C  0.20848444  0.67336480  0.35599456    -0.11500
C1720       C  0.20850242  0.69628478  0.37737184    -0.13100
C1721       C  0.24593778  0.71967295  0.55338903    -0.11500
C1722       C  0.25800379  0.70609487  0.58136977    -0.13100
C1723       C  0.24830415  0.84467903  0.30333120    -0.11500
C1724       C  0.23625546  0.83108616  0.33130938    -0.13100
C1725       C  0.24533750  0.85951943  0.49129673    -0.11500
C1726       C  0.24892005  0.88510883  0.49218083    -0.13100
C1727       C  0.03577244  0.92328586  0.37719323    -0.11500
C1728       C  0.03577049  0.94620496  0.35581268    -0.13100
C1729       C  0.11313872  0.81643409  0.41936127    -0.11500
C1730       C  0.13114993  0.80314138  0.41938043    -0.13100
C1731       C  0.99595871  0.77486120  0.30315999    -0.11500
C1732       C  0.00801967  0.78844479  0.33114026    -0.13100
C1733       C  0.99892457  0.76004217  0.49105741    -0.11500
C1734       C  0.99533528  0.73445334  0.49193436    -0.13100
C1735       C  0.20848561  0.92336818  0.85602143    -0.11500
C1736       C  0.20849518  0.94628758  0.87740083    -0.13100
C1737       C  0.17052566  0.81370552  0.63756854    -0.11500
C1738       C  0.17052059  0.80595849  0.59576878    -0.13100
C1739       C  0.24893944  0.73454629  0.74126354    -0.11500
C1740       C  0.24535289  0.76013532  0.74214252    -0.13100
C1741       C  0.23628405  0.78853102  0.90208340    -0.11500
C1742       C  0.24835086  0.77495240  0.93006540    -0.13100
C1743       C  0.24592331  0.89999099  0.68011744    -0.11500
C1744       C  0.25797842  0.91357532  0.65214174    -0.13100
C1745       C  0.03575577  0.69620869  0.85580089    -0.11500
C1746       C  0.03574976  0.67328792  0.87717544    -0.13100
C1747       C  0.07377421  0.80590295  0.63746496    -0.11500
C1748       C  0.07375860  0.81365073  0.59566596    -0.13100
C1749       C  0.11313811  0.80310544  0.81379415    -0.11500
C1750       C  0.13113244  0.81643775  0.81381526    -0.13100
C1751       C  0.98629575  0.70600593  0.65185942    -0.11500
C1752       C  0.99836450  0.71959128  0.67982203    -0.13100
C1753       C  0.95851553  0.82120189  0.10581574    -0.11500
C1754       C  0.95851090  0.79828605  0.12720386    -0.13100
C1755       C  0.99834608  0.96957620  0.17983694    -0.11500
C1756       C  0.98627649  0.95599504  0.15187148    -0.13100
C1757       C  0.99531104  0.98446215  0.99195217    -0.11500
C1758       C  0.99889505  0.51005201  0.99106909    -0.13100
C1759       C  0.99594345  0.84458565  0.92985946    -0.11500
C1760       C  0.00800126  0.83100082  0.90188473    -0.13100
C1761       C  0.78573518  0.57120204  0.12722073    -0.11500
C1762       C  0.78574244  0.54828648  0.10583142    -0.13100
C1763       C  0.74831578  0.52487456  0.92987625    -0.11500
C1764       C  0.73627122  0.53845971  0.90187727    -0.13100
C1765       C  0.86311989  0.94137813  0.06366455    -0.11500
C1766       C  0.88112323  0.92806253  0.06365125    -0.13100
C1767       C  0.75794301  0.91347715  0.15191046    -0.11500
C1768       C  0.74586761  0.89989812  0.17986724    -0.13100
C1769       C  0.74889576  0.88502852  0.99203002    -0.11500
C1770       C  0.74530588  0.85944000  0.99115410    -0.13100
C1771       C  0.95849126  0.54828658  0.62718627    -0.11500
C1772       C  0.95850416  0.57120568  0.60580757    -0.13100
C1773       C  0.00798494  0.53845344  0.83112158    -0.11500
C1774       C  0.99592904  0.52486781  0.80313643    -0.13100
C1775       C  0.92052071  0.93085018  0.88738183    -0.11500
C1776       C  0.92052212  0.93859313  0.84558004    -0.13100
C1777       C  0.98624502  0.91348126  0.58106782    -0.11500
C1778       C  0.99830972  0.89989897  0.55310361    -0.13100
C1779       C  0.99895741  0.85945412  0.74185789    -0.11500
C1780       C  0.99535451  0.88503839  0.74096762    -0.13100
C1781       C  0.78574149  0.79830599  0.60580800    -0.11500
C1782       C  0.78572739  0.82122135  0.62719556    -0.13100
C1783       C  0.75797287  0.95599804  0.58114668    -0.11500
C1784       C  0.74591810  0.96958943  0.55317832    -0.13100
C1785       C  0.74888230  0.98445515  0.74101300    -0.11500
C1786       C  0.74530578  0.51004667  0.74185949    -0.13100
C1787       C  0.82371083  0.93860751  0.88744007    -0.11500
C1788       C  0.82370930  0.93086682  0.84563966    -0.13100
C1789       C  0.86308998  0.92810026  0.66930521    -0.11500
C1790       C  0.88110496  0.94139140  0.66929066    -0.13100
C1791       C  0.73623034  0.83101810  0.83120629    -0.11500
C1792       C  0.74828999  0.84459824  0.80321894    -0.13100
loop_ 
_geom_bond_atom_site_label_1 
_geom_bond_atom_site_label_2 
_geom_bond_distance 
_geom_bond_site_symmetry_2 
_ccdc_geom_bond_type 
O1           C16   1.269       .  A
O1           Al9   1.937       .  S
C2           O12   1.266       .  A
C2            O3   1.258       .  A
C2          C892   1.437       .  S
O3           Al5   1.889       .  S
O4            C6   1.272       .  A
O4           Al5   1.968       .  S
Al5          O13   1.985       .  S
Al5          O15   1.889       .  S
Al5          O14   1.769       .  S
C6           O19   1.258       .  A
C6          C896   1.450       .  S
O7           C17   1.268       .  A
O7           Al9   1.949       .  S
O8           C21   1.269       .  A
O8          Al18   1.961       .  S
Al9          O22   1.898       .  S
Al9          O19   1.889       .  S
Al9          O14   1.777       .  S
O10          C17   1.243       .  A
O10         Al18   1.839       .  S
O11          C20   1.253       .  A
O11         Al18   1.867       .  S
O12         Al18   1.948       .  S
O13          C20   1.278       .  A
O14         Al18   1.766       .  S
O15          C16   1.263       .  A
C16         C886   1.433       .  S
C17         C889   1.404       .  S
C20         C893   1.442       .  S
C21          O22   1.260       .  A
C21         C887   1.448       .  S
O23          C38   1.269       .  A
O23        Al927   1.937   1_545  S
C24          O34   1.266       .  A
C24          O25   1.258       .  A
C24         C880   1.437       .  S
O25         Al27   1.890       .  S
O26          C28   1.272       .  A
O26        Al923   1.967   1_545  S
Al27         O35   1.985       .  S
Al27        O922   1.967       .  S
Al27        O933   1.889       .  S
Al27         O36   1.770       .  S
C28         O937   1.258   1_545  A
C28         C878   1.450       .  S
O29          C39   1.268       .  A
O29         Al31   1.948       .  S
O30          C43   1.269       .  A
O30         Al40   1.961       .  S
Al31         O44   1.898       .  S
Al31         O41   1.889       .  S
Al31        O919   1.937       .  S
Al31         O36   1.777       .  S
O32          C39   1.243       .  A
O32         Al40   1.839       .  S
O33          C42   1.253       .  A
O33         Al40   1.867       .  S
O34         Al40   1.948       .  S
O35          C42   1.278       .  A
O36         Al40   1.766       .  S
O37          C38   1.263       .  A
O37        Al923   1.889   1_545  S
C38         C875   1.433       .  S
C39         C884   1.404       .  S
O41         C924   1.258       .  A
C42         C894   1.442       .  S
C43          O44   1.260       .  A
C43         C881   1.449       .  S
O45          C60   1.269       .  A
O45        Al949   1.937   1_545  S
C46          O56   1.267       .  A
C46          O47   1.258       .  A
C46         C891   1.437       .  S
O47         Al49   1.889   1_556  S
O48          C50   1.272       .  A
O48        Al945   1.967   1_546  S
Al49         O57   1.985       .  S
Al49        O944   1.967   1_554  S
Al49        O955   1.889       .  S
Al49         O58   1.770       .  S
C50         O959   1.258   1_545  A
C50         C867   1.449       .  S
O51          C61   1.268   1_554  A
O51         Al53   1.949       .  S
O52          C65   1.269       .  A
O52         Al62   1.962       .  S
Al53         O66   1.898       .  S
Al53         O63   1.889   1_554  S
Al53        O941   1.937       .  S
Al53         O58   1.777       .  S
O54          C61   1.243       .  A
O54         Al62   1.839   1_556  S
O55          C64   1.253       .  A
O55         Al62   1.867       .  S
O56         Al62   1.948   1_556  S
O57          C64   1.278       .  A
O58         Al62   1.766       .  S
O59          C60   1.263       .  A
O59        Al945   1.889   1_545  S
C60         C866   1.433       .  S
C61         C873   1.404       .  S
O63         C946   1.258       .  A
C64         C869   1.442       .  S
C65          O66   1.260       .  A
C65         C871   1.449       .  S
O67          C82   1.269       .  A
O67         Al75   1.938       .  S
C68          O78   1.267       .  A
C68          O69   1.258       .  A
C68         C879   1.437       .  S
O69         Al71   1.889   1_556  S
O70          C72   1.272       .  A
O70         Al71   1.967   1_556  S
Al71         O79   1.985       .  S
Al71         O81   1.889       .  S
Al71         O80   1.770       .  S
C72          O85   1.258       .  A
C72         C863   1.450       .  S
O73          C83   1.268   1_554  A
O73         Al75   1.949       .  S
O74          C87   1.269       .  A
O74         Al84   1.961       .  S
Al75         O88   1.898       .  S
Al75         O85   1.889   1_554  S
Al75         O80   1.777       .  S
O76          C83   1.243       .  A
O76         Al84   1.839   1_556  S
O77          C86   1.253       .  A
O77         Al84   1.867       .  S
O78         Al84   1.949   1_556  S
O79          C86   1.278       .  A
O80         Al84   1.766       .  S
O81          C82   1.263       .  A
C82         C857   1.433       .  S
C83         C861   1.404       .  S
C86         C870   1.442       .  S
C87          O88   1.260       .  A
C87         C860   1.449       .  S
O89         C104   1.260       .  A
O89         Al97   1.898       .  S
C90         O100   1.258       .  A
C90          O91   1.267       .  A
C90         C851   1.437       .  S
O91         Al93   1.948       .  S
O92          C94   1.243       .  A
O92         Al93   1.839       .  S
Al93        O101   1.867       .  S
Al93        O103   1.961       .  S
Al93        O102   1.766       .  S
C94         O107   1.268   1_455  A
C94         C883   1.404   1_455  S
O95         C105   1.258       .  A
O95         Al97   1.889       .  S
O96         C109   1.263       .  A
O96        Al106   1.889       .  S
Al97        O110   1.938       .  S
Al97        O107   1.949   1_455  S
Al97        O102   1.777       .  S
O98         C105   1.272       .  A
O98        Al106   1.967       .  S
O99         C108   1.278       .  A
O99        Al106   1.985       .  S
O100       Al106   1.889       .  S
O101        C108   1.253       .  A
O102       Al106   1.770       .  S
O103        C104   1.269       .  A
C104        C864   1.449       .  S
C105        C856   1.450   1_455  S
C108        C853   1.442       .  S
C109        O110   1.269       .  A
C109        C849   1.433       .  S
O111        C126   1.260       .  A
O111       Al119   1.899       .  S
C112        O122   1.258       .  A
C112        O113   1.267       .  A
C112        C841   1.437       .  S
O113       Al115   1.949       .  S
O114        C116   1.243       .  A
O114       Al115   1.839       .  S
Al115       O123   1.867       .  S
Al115       O125   1.962       .  S
Al115       O124   1.766       .  S
C116        O129   1.268       .  A
C116        C844   1.404       .  S
O117        C127   1.258       .  A
O117       Al119   1.889       .  S
O118        C131   1.263       .  A
O118       Al128   1.889       .  S
Al119       O132   1.937       .  S
Al119       O129   1.949       .  S
Al119       O124   1.777       .  S
O120        C127   1.272       .  A
O120       Al128   1.967       .  S
O121        C130   1.278       .  A
O121       Al128   1.985       .  S
O122       Al128   1.890       .  S
O123        C130   1.253       .  A
O124       Al128   1.770       .  S
O125        C126   1.269       .  A
C126        C845   1.449       .  S
C127        C847   1.449       .  S
C130        C854   1.442       .  S
C131        O132   1.269       .  A
C131        C839   1.433       .  S
O133        C148   1.260       .  A
O133       Al141   1.898       .  S
C134        O144   1.258       .  A
C134        O135   1.266       .  A
C134        C852   1.437       .  S
O135       Al137   1.948       .  S
O136        C138   1.243       .  A
O136       Al137   1.839       .  S
Al137       O145   1.867       .  S
Al137       O147   1.961       .  S
Al137       O146   1.766       .  S
C138        O151   1.268   1_455  A
C138        C837   1.404   1_455  S
O139        C149   1.258       .  A
O139       Al141   1.889       .  S
O140        C153   1.263       .  A
O140       Al150   1.889       .  S
Al141       O154   1.937       .  S
Al141       O151   1.949   1_455  S
Al141       O146   1.777       .  S
O142        C149   1.272       .  A
O142       Al150   1.967       .  S
O143        C152   1.277       .  A
O143       Al150   1.985       .  S
O144       Al150   1.890       .  S
O145        C152   1.253       .  A
O146       Al150   1.770       .  S
O147        C148   1.269       .  A
C148        C836   1.449       .  S
C149        C882   1.449   1_455  S
C152        C833   1.442       .  S
C153        O154   1.269       .  A
C153        C831   1.433       .  S
O155        C170   1.260       .  A
O155       Al163   1.898       .  S
C156        O166   1.258       .  A
C156        O157   1.266       .  A
C156        C842   1.437       .  S
O157       Al159   1.948       .  S
O158        C160   1.243       .  A
O158       Al159   1.839       .  S
Al159       O167   1.867       .  S
Al159       O169   1.961       .  S
Al159       O168   1.766       .  S
C160        O173   1.268       .  A
C160        C829   1.404       .  S
O161        C171   1.258       .  A
O161       Al163   1.889       .  S
O162        C175   1.263       .  A
O162       Al172   1.889       .  S
Al163       O176   1.938       .  S
Al163       O173   1.949       .  S
Al163       O168   1.777       .  S
O164        C171   1.272       .  A
O164       Al172   1.967       .  S
O165        C174   1.278       .  A
O165       Al172   1.985       .  S
O166       Al172   1.890       .  S
O167        C174   1.253       .  A
O168       Al172   1.770       .  S
O169        C170   1.269       .  A
C170        C828   1.448       .  S
C171        C825   1.450       .  S
C174        C834   1.442       .  S
C175        O176   1.269       .  A
C175        C824   1.433       .  S
O177        C192   1.260       .  A
O177       Al185   1.898       .  S
C178        O188   1.258       .  A
C178        O179   1.266       .  A
C178        C817   1.437       .  S
O179       Al181   1.948       .  S
O180        C182   1.243       .  A
O180       Al181   1.839       .  S
Al181       O189   1.867       .  S
Al181       O191   1.961       .  S
Al181       O190   1.766       .  S
C182        O195   1.268       .  A
C182        C890   1.404       .  S
O183        C193   1.258       .  A
O183       Al185   1.889       .  S
O184        C197   1.263       .  A
O184       Al194   1.889       .  S
Al185       O198   1.938       .  S
Al185       O195   1.949       .  S
Al185       O190   1.777       .  S
O186        C193   1.272       .  A
O186       Al194   1.967       .  S
O187        C196   1.278       .  A
O187       Al194   1.985       .  S
O188       Al194   1.890       .  S
O189        C196   1.253       .  A
O190       Al194   1.770       .  S
O191        C192   1.269       .  A
C192        C868   1.448       .  S
C193        C821   1.450       .  S
C196        C819   1.442       .  S
C197        O198   1.269       .  A
C197        C816   1.433       .  S
O199        C214   1.260       .  A
O199       Al207   1.898       .  S
C200        O210   1.258       .  A
C200        O201   1.266       .  A
C200        C812   1.437       .  S
O201       Al203   1.948       .  S
O202        C204   1.243       .  A
O202       Al203   1.839       .  S
Al203       O211   1.867       .  S
Al203       O213   1.961       .  S
Al203       O212   1.766       .  S
C204        O217   1.268       .  A
C204        C807   1.404       .  S
O205       C1111   1.258   1_545  A
O205       Al207   1.889       .  S
O206        C219   1.263       .  A
O206      Al1112   1.889       .  S
Al207       O217   1.949       .  S
Al207      O1116   1.938   1_545  S
Al207       O212   1.777       .  S
O208        C215   1.272       .  A
O208      Al1112   1.967       .  S
O209        C218   1.277       .  A
O209       Al216   1.985       .  S
O210       Al216   1.890       .  S
O211        C218   1.253       .  A
O212       Al216   1.770       .  S
O213        C214   1.269       .  A
C214        C810   1.449       .  S
C215       O1101   1.258       .  A
C215        C813   1.449       .  S
Al216      O1102   1.889   1_545  S
Al216      O1104   1.967   1_545  S
C218        C820   1.442       .  S
C219        O220   1.269       .  A
C219        C805   1.433       .  S
O220      Al1103   1.938       .  S
O221        C236   1.260       .  A
O221       Al229   1.898       .  S
C222        O232   1.258       .  A
C222        O223   1.267       .  A
C222        C818   1.437       .  S
O223       Al225   1.949       .  S
O224        C226   1.243       .  A
O224       Al225   1.839       .  S
Al225       O233   1.867       .  S
Al225       O235   1.961       .  S
Al225       O234   1.766       .  S
C226        O239   1.268       .  A
C226        C804   1.404       .  S
O227       C1133   1.258   1_545  A
O227       Al229   1.889       .  S
O228        C241   1.263       .  A
O228      Al1134   1.889       .  S
Al229       O239   1.949       .  S
Al229      O1138   1.938   1_545  S
Al229       O234   1.777       .  S
O230        C237   1.272       .  A
O230      Al1134   1.967       .  S
O231        C240   1.277       .  A
O231       Al238   1.985       .  S
O232       Al238   1.890       .  S
O233        C240   1.253       .  A
O234       Al238   1.770       .  S
O235        C236   1.269       .  A
C236        C801   1.449       .  S
C237       O1123   1.258       .  A
C237        C888   1.449       .  S
Al238      O1124   1.889   1_545  S
Al238      O1126   1.967   1_545  S
C240        C799   1.442       .  S
C241        O242   1.269       .  A
C241        C797   1.433       .  S
O242      Al1125   1.938       .  S
O243        C258   1.260       .  A
O243       Al251   1.898       .  S
C244        O254   1.258       .  A
C244        O245   1.266       .  A
C244        C811   1.437       .  S
O245       Al247   1.948       .  S
O246        C248   1.243       .  A
O246       Al247   1.839       .  S
Al247       O255   1.867       .  S
Al247       O257   1.961       .  S
Al247       O256   1.766       .  S
C248        O261   1.268       .  A
C248        C795   1.404       .  S
O249        C259   1.258       .  A
O249       Al251   1.889       .  S
O250        C263   1.263       .  A
O250       Al260   1.889       .  S
Al251       O264   1.938       .  S
Al251       O261   1.949       .  S
Al251       O256   1.777       .  S
O252        C259   1.272       .  A
O252       Al260   1.967       .  S
O253        C262   1.278       .  A
O253       Al260   1.985       .  S
O254       Al260   1.890       .  S
O255        C262   1.253       .  A
O256       Al260   1.770       .  S
O257        C258   1.269       .  A
C258        C794   1.448       .  S
C259        C792   1.450       .  S
C262        C800   1.442       .  S
C263        O264   1.269       .  A
C263        C789   1.433       .  S
O265        C280   1.260       .  A
O265       Al273   1.898       .  S
C266        O276   1.258       .  A
C266        O267   1.266       .  A
C266        C782   1.437       .  S
O267       Al269   1.948       .  S
O268        C270   1.243       .  A
O268       Al269   1.839       .  S
Al269       O277   1.867       .  S
Al269       O279   1.961       .  S
Al269       O278   1.766       .  S
C270        O283   1.268       .  A
C270        C788   1.404       .  S
O271        C281   1.258       .  A
O271       Al273   1.889       .  S
O272        C285   1.263       .  A
O272       Al282   1.889       .  S
Al273       O286   1.938       .  S
Al273       O283   1.949       .  S
Al273       O278   1.777       .  S
O274        C281   1.272       .  A
O274       Al282   1.967       .  S
O275        C284   1.278       .  A
O275       Al282   1.985       .  S
O276       Al282   1.890       .  S
O277        C284   1.253       .  A
O278       Al282   1.770       .  S
O279        C280   1.269       .  A
C280        C785   1.448       .  S
C281        C872   1.450       .  S
C284        C783   1.442       .  S
C285        O286   1.269       .  A
C285        C798   1.433       .  S
O287        C302   1.260       .  A
O287       Al295   1.898       .  S
C288        O298   1.258       .  A
C288        O289   1.266       .  A
C288        C779   1.437       .  S
O289       Al291   1.948       .  S
O290        C292   1.243       .  A
O290       Al291   1.839       .  S
Al291       O299   1.867       .  S
Al291       O301   1.961       .  S
Al291       O300   1.766       .  S
C292        O305   1.268       .  A
C292        C774   1.404       .  S
O293        C303   1.258       .  A
O293       Al295   1.889       .  S
O294        C307   1.263       .  A
O294       Al304   1.889       .  S
Al295       O308   1.937       .  S
Al295       O305   1.949       .  S
Al295       O300   1.777       .  S
O296        C303   1.272       .  A
O296       Al304   1.967       .  S
O297        C306   1.277       .  A
O297       Al304   1.985       .  S
O298       Al304   1.890       .  S
O299        C306   1.253       .  A
O300       Al304   1.770       .  S
O301        C302   1.269       .  A
C302        C775   1.449       .  S
C303        C777   1.449       .  S
C306        C784   1.442       .  S
C307        O308   1.269       .  A
C307        C790   1.433       .  S
O309        C324   1.260       .  A
O309       Al317   1.898       .  S
C310        O320   1.258       .  A
C310        O311   1.267       .  A
C310        C781   1.437       .  S
O311       Al313   1.949   1_554  S
O312        C314   1.243       .  A
O312       Al313   1.839       .  S
Al313       O321   1.867       .  S
Al313       O323   1.962       .  S
Al313       O322   1.766       .  S
C314        O327   1.268       .  A
C314        C874   1.404       .  S
O315        C325   1.258       .  A
O315       Al317   1.889   1_554  S
O316        C329   1.263       .  A
O316       Al326   1.889       .  S
Al317       O330   1.937       .  S
Al317       O327   1.949       .  S
Al317       O322   1.777       .  S
O318        C325   1.272       .  A
O318       Al326   1.967   1_554  S
O319        C328   1.277       .  A
O319       Al326   1.985       .  S
O320       Al326   1.890   1_554  S
O321        C328   1.253       .  A
O322       Al326   1.770       .  S
O323        C324   1.269       .  A
C324        C895   1.449       .  S
C325        C771   1.449       .  S
C328        C769   1.442       .  S
C329        O330   1.269       .  A
C329        C815   1.433       .  S
O331        C346   1.260       .  A
O331       Al339   1.898       .  S
C332        O342   1.258       .  A
C332        O333   1.266       .  A
C332        C780   1.437       .  S
O333       Al335   1.948   1_554  S
O334        C336   1.243       .  A
O334       Al335   1.839       .  S
Al335       O343   1.867       .  S
Al335       O345   1.961       .  S
Al335       O344   1.766       .  S
C336        O349   1.268       .  A
C336        C766   1.404       .  S
O337        C347   1.258       .  A
O337       Al339   1.889   1_554  S
O338        C351   1.263       .  A
O338       Al348   1.889       .  S
Al339       O352   1.938       .  S
Al339       O349   1.949       .  S
Al339       O344   1.777       .  S
O340        C347   1.272       .  A
O340       Al348   1.967   1_554  S
O341        C350   1.278       .  A
O341       Al348   1.985       .  S
O342       Al348   1.890   1_554  S
O343        C350   1.253       .  A
O344       Al348   1.770       .  S
O345        C346   1.269       .  A
C346        C767   1.449       .  S
C347        C763   1.450       .  S
C350        C770   1.442       .  S
C351        O352   1.269       .  A
C351        C806   1.433       .  S
O353        C368   1.269       .  A
O353       Al361   1.937       .  S
C354        O364   1.267       .  A
C354        O355   1.258       .  A
C354        C760   1.437       .  S
O355       Al357   1.890       .  S
O356        C358   1.272       .  A
O356       Al357   1.967       .  S
Al357       O365   1.985       .  S
Al357       O367   1.889       .  S
Al357       O366   1.770       .  S
C358        O371   1.258       .  A
C358        C827   1.449       .  S
O359        C369   1.268       .  A
O359       Al361   1.949       .  S
O360        C373   1.269       .  A
O360       Al370   1.962       .  S
Al361       O374   1.898       .  S
Al361       O371   1.889       .  S
Al361       O366   1.777       .  S
O362        C369   1.243       .  A
O362       Al370   1.839       .  S
O363        C372   1.253       .  A
O363       Al370   1.867       .  S
O364       Al370   1.949       .  S
O365        C372   1.277       .  A
O366       Al370   1.766       .  S
O367        C368   1.263       .  A
C368        C754   1.433       .  S
C369        C755   1.404       .  S
C372        C761   1.442       .  S
C373        O374   1.260       .  A
C373        C757   1.449       .  S
O375        C390   1.269       .  A
O375      Al1279   1.937   1_545  S
C376        O386   1.267       .  A
C376        O377   1.258       .  A
C376        C752   1.437       .  S
O377       Al379   1.889       .  S
O378        C380   1.272       .  A
O378      Al1275   1.967   1_545  S
Al379       O387   1.985       .  S
Al379      O1274   1.967       .  S
Al379      O1285   1.889       .  S
Al379       O388   1.770       .  S
C380       O1289   1.258   1_545  A
C380        C793   1.449       .  S
O381        C391   1.268       .  A
O381       Al383   1.949       .  S
O382        C395   1.269       .  A
O382       Al392   1.961       .  S
Al383       O396   1.898       .  S
Al383       O393   1.889       .  S
Al383      O1271   1.937       .  S
Al383       O388   1.777       .  S
O384        C391   1.243       .  A
O384       Al392   1.839       .  S
O385        C394   1.253       .  A
O385       Al392   1.867       .  S
O386       Al392   1.949       .  S
O387        C394   1.277       .  A
O388       Al392   1.766       .  S
O389        C390   1.263       .  A
O389      Al1275   1.889   1_545  S
C390        C749   1.433       .  S
C391        C773   1.404       .  S
O393       C1276   1.258       .  A
C394        C762   1.442       .  S
C395        O396   1.260       .  A
C395        C764   1.449       .  S
O397        C412   1.269       .  A
O397      Al1301   1.937   1_545  S
C398        O408   1.266       .  A
C398        O399   1.258       .  A
C398        C759   1.437       .  S
O399       Al401   1.889       .  S
O400        C402   1.272       .  A
O400      Al1297   1.968   1_545  S
Al401       O409   1.986       .  S
Al401      O1296   1.968       .  S
Al401      O1307   1.889       .  S
Al401       O410   1.770       .  S
C402       O1311   1.258   1_545  A
C402        C745   1.450       .  S
O403        C413   1.268       .  A
O403       Al405   1.949       .  S
O404        C417   1.269       .  A
O404       Al414   1.961       .  S
Al405       O418   1.898       .  S
Al405       O415   1.889       .  S
Al405      O1293   1.937       .  S
Al405       O410   1.777       .  S
O406        C413   1.243       .  A
O406       Al414   1.839       .  S
O407        C416   1.253       .  A
O407       Al414   1.867       .  S
O408       Al414   1.948       .  S
O409        C416   1.278       .  A
O410       Al414   1.766       .  S
O411        C412   1.263       .  A
O411      Al1297   1.889   1_545  S
C412        C744   1.433       .  S
C413        C830   1.404       .  S
O415       C1298   1.258       .  A
C416        C747   1.442       .  S
C417        O418   1.260       .  A
C417        C848   1.448       .  S
O419        C434   1.269       .  A
O419       Al427   1.937       .  S
C420        O430   1.266       .  A
C420        O421   1.258       .  A
C420        C751   1.437       .  S
O421       Al423   1.889       .  S
O422        C424   1.272       .  A
O422       Al423   1.967       .  S
Al423       O431   1.985       .  S
Al423       O433   1.889       .  S
Al423       O432   1.770       .  S
C424        O437   1.258       .  A
C424        C776   1.450       .  S
O425        C435   1.268       .  A
O425       Al427   1.949       .  S
O426        C439   1.269       .  A
O426       Al436   1.961       .  S
Al427       O440   1.898       .  S
Al427       O437   1.889       .  S
Al427       O432   1.777       .  S
O428        C435   1.243       .  A
O428       Al436   1.839       .  S
O429        C438   1.253       .  A
O429       Al436   1.867       .  S
O430       Al436   1.948       .  S
O431        C438   1.278       .  A
O432       Al436   1.766       .  S
O433        C434   1.263       .  A
C434        C741   1.433       .  S
C435        C796   1.404       .  S
C438        C748   1.442       .  S
C439        O440   1.260       .  A
C439        C814   1.448       .  S
O441        C456   1.269       .  A
O441       Al449   1.937       .  S
C442        O452   1.266       .  A
C442        O443   1.258       .  A
C442        C738   1.437       .  S
O443       Al445   1.889       .  S
O444        C446   1.272       .  A
O444       Al445   1.968       .  S
Al445       O453   1.985       .  S
Al445       O455   1.889       .  S
Al445       O454   1.770       .  S
C446        O459   1.258       .  A
C446        C802   1.450       .  S
O447        C457   1.268       .  A
O447       Al449   1.949       .  S
O448        C461   1.269       .  A
O448       Al458   1.961       .  S
Al449       O462   1.898       .  S
Al449       O459   1.889       .  S
Al449       O454   1.777       .  S
O450        C457   1.243       .  A
O450       Al458   1.839       .  S
O451        C460   1.253       .  A
O451       Al458   1.867       .  S
O452       Al458   1.948       .  S
O453        C460   1.278       .  A
O454       Al458   1.766       .  S
O455        C456   1.263       .  A
C456        C865   1.433       .  S
C457        C787   1.404       .  S
C460        C739   1.442       .  S
C461        O462   1.260       .  A
C461        C772   1.448       .  S
O463        C478   1.269       .  A
O463       Al471   1.937       .  S
C464        O474   1.266       .  A
C464        O465   1.258       .  A
C464        C732   1.437       .  S
O465       Al467   1.889       .  S
O466        C468   1.272       .  A
O466       Al467   1.967       .  S
Al467       O475   1.985       .  S
Al467       O477   1.889       .  S
Al467       O476   1.770       .  S
C468        O481   1.258       .  A
C468        C835   1.450       .  S
O469        C479   1.268       .  A
O469       Al471   1.949       .  S
O470        C483   1.269       .  A
O470       Al480   1.961       .  S
Al471       O484   1.898       .  S
Al471       O481   1.889       .  S
Al471       O476   1.777       .  S
O472        C479   1.243       .  A
O472       Al480   1.839       .  S
O473        C482   1.253       .  A
O473       Al480   1.867       .  S
O474       Al480   1.948       .  S
O475        C482   1.278       .  A
O476       Al480   1.766       .  S
O477        C478   1.263       .  A
C478        C858   1.433       .  S
C479        C734   1.404       .  S
C482        C740   1.442       .  S
C483        O484   1.260       .  A
C483        C735   1.448       .  S
O485        C500   1.269       .  A
O485       Al493   1.937       .  S
C486        O496   1.267       .  A
C486        O487   1.258       .  A
C486        C737   1.437       .  S
O487       Al489   1.889       .  S
O488        C490   1.272       .  A
O488       Al489   1.967       .  S
Al489       O497   1.985       .  S
Al489       O499   1.889       .  S
Al489       O498   1.770       .  S
C490        O503   1.258       .  A
C490        C786   1.449       .  S
O491        C501   1.268       .  A
O491       Al493   1.949       .  S
O492        C505   1.269       .  A
O492       Al502   1.962       .  S
Al493       O506   1.898       .  S
Al493       O503   1.889       .  S
Al493       O498   1.777       .  S
O494        C501   1.243       .  A
O494       Al502   1.839       .  S
O495        C504   1.253       .  A
O495       Al502   1.867       .  S
O496       Al502   1.948       .  S
O497        C504   1.277       .  A
O498       Al502   1.766       .  S
O499        C500   1.263       .  A
C500        C885   1.433       .  S
C501        C803   1.404       .  S
C504        C729   1.442       .  S
C505        O506   1.260       .  A
C505        C822   1.449       .  S
O507        C522   1.269       .  A
O507       Al515   1.938       .  S
C508        O518   1.267       .  A
C508        O509   1.258       .  A
C508        C731   1.437       .  S
O509       Al511   1.889       .  S
O510        C512   1.272       .  A
O510       Al511   1.967       .  S
Al511       O519   1.985       .  S
Al511       O521   1.889       .  S
Al511       O520   1.770       .  S
C512        O525   1.258       .  A
C512        C728   1.450       .  S
O513        C523   1.268       .  A
O513       Al515   1.949       .  S
O514        C527   1.269       .  A
O514       Al524   1.961       .  S
Al515       O528   1.898       .  S
Al515       O525   1.889       .  S
Al515       O520   1.777       .  S
O516        C523   1.243       .  A
O516       Al524   1.839       .  S
O517        C526   1.253       .  A
O517       Al524   1.867       .  S
O518       Al524   1.948       .  S
O519        C526   1.278       .  A
O520       Al524   1.766       .  S
O521        C522   1.263       .  A
C522        C876   1.433       .  S
C523        C838   1.404       .  S
C526        C730   1.442       .  S
C527        O528   1.260       .  A
C527        C855   1.449       .  S
O529        C544   1.260       .  A
O529       Al537   1.898       .  S
C530        O540   1.258       .  A
C530        O531   1.267       .  A
C530        C723   1.437       .  S
O531       Al533   1.948       .  S
O532        C534   1.243       .  A
O532       Al533   1.839       .  S
Al533       O541   1.867       .  S
Al533       O543   1.961       .  S
Al533       O542   1.766       .  S
C534        O547   1.268   1_455  A
C534        C733   1.404   1_455  S
O535       C1441   1.258   1_545  A
O535       Al537   1.889       .  S
O536        C549   1.263       .  A
O536      Al1442   1.889       .  S
Al537       O547   1.949   1_455  S
Al537      O1446   1.938   1_545  S
Al537       O542   1.777       .  S
O538        C545   1.272       .  A
O538      Al1442   1.967       .  S
O539        C548   1.278       .  A
O539       Al546   1.985       .  S
O540       Al546   1.890       .  S
O541        C548   1.253       .  A
O542       Al546   1.770       .  S
O543        C544   1.269       .  A
C544        C727   1.449       .  S
C545       O1431   1.258       .  A
C545        C859   1.450   1_455  S
Al546      O1432   1.889   1_545  S
Al546      O1434   1.967   1_545  S
C548        C725   1.442       .  S
C549        O550   1.269       .  A
C549        C832   1.433       .  S
O550      Al1433   1.938       .  S
O551        C566   1.260       .  A
O551       Al559   1.898       .  S
C552        O562   1.258       .  A
C552        O553   1.267       .  A
C552        C721   1.437       .  S
O553       Al555   1.949       .  S
O554        C556   1.243       .  A
O554       Al555   1.839       .  S
Al555       O563   1.867       .  S
Al555       O565   1.962       .  S
Al555       O564   1.766       .  S
C556        O569   1.268       .  A
C556        C756   1.404       .  S
O557        C567   1.258       .  A
O557       Al559   1.889       .  S
O558        C571   1.263       .  A
O558       Al568   1.889       .  S
Al559       O572   1.937       .  S
Al559       O569   1.949       .  S
Al559       O564   1.777       .  S
O560        C567   1.272       .  A
O560       Al568   1.967       .  S
O561        C570   1.278       .  A
O561       Al568   1.985       .  S
O562       Al568   1.890       .  S
O563        C570   1.253       .  A
O564       Al568   1.770       .  S
O565        C566   1.269       .  A
C566        C746   1.449       .  S
C567        C719   1.449       .  S
C570        C726   1.442       .  S
C571        O572   1.269       .  A
C571        C823   1.433       .  S
O573        C588   1.260       .  A
O573       Al581   1.898       .  S
C574        O584   1.258       .  A
C574        O575   1.266       .  A
C574        C724   1.437       .  S
O575       Al577   1.948   1_554  S
O576        C578   1.243       .  A
O576       Al577   1.839       .  S
Al577       O585   1.867       .  S
Al577       O587   1.961       .  S
Al577       O586   1.766       .  S
C578        O591   1.268   1_455  A
C578        C862   1.404   1_455  S
O579        C589   1.258       .  A
O579       Al581   1.889   1_554  S
O580        C593   1.263       .  A
O580       Al590   1.889       .  S
Al581       O594   1.937       .  S
Al581       O591   1.949   1_455  S
Al581       O586   1.777       .  S
O582        C589   1.272       .  A
O582       Al590   1.967   1_554  S
O583        C592   1.277       .  A
O583       Al590   1.985       .  S
O584       Al590   1.890   1_554  S
O585        C592   1.253       .  A
O586       Al590   1.770       .  S
O587        C588   1.269       .  A
C588        C877   1.449       .  S
C589        C736   1.449   1_455  S
C592        C717   1.442       .  S
C593        O594   1.269       .  A
C593        C850   1.433       .  S
O595        C610   1.260       .  A
O595       Al603   1.898       .  S
C596        O606   1.258       .  A
C596        O597   1.267       .  A
C596        C722   1.437       .  S
O597       Al599   1.948   1_554  S
O598        C600   1.243       .  A
O598       Al599   1.839       .  S
Al599       O607   1.867       .  S
Al599       O609   1.961       .  S
Al599       O608   1.766       .  S
C600        O613   1.268       .  A
C600        C714   1.404       .  S
O601       C1507   1.258   1_545  A
O601       Al603   1.889   1_554  S
O602        C615   1.263       .  A
O602      Al1508   1.889       .  S
Al603       O613   1.949       .  S
Al603      O1512   1.938   1_545  S
Al603       O608   1.777       .  S
O604        C611   1.272       .  A
O604      Al1508   1.967   1_554  S
O605        C614   1.277       .  A
O605       Al612   1.985       .  S
O606       Al612   1.889   1_554  S
O607        C614   1.253       .  A
O608       Al612   1.770       .  S
O609        C610   1.269       .  A
C610        C716   1.448       .  S
C611       O1497   1.258       .  A
C611        C758   1.450       .  S
Al612      O1498   1.889   1_545  S
Al612      O1500   1.967   1_546  S
C614        C718   1.442       .  S
C615        O616   1.269       .  A
C615        C840   1.433       .  S
O616      Al1499   1.938       .  S
O617        C632   1.269       .  A
O617       Al625   1.937       .  S
C618        O628   1.267       .  A
C618        O619   1.258       .  A
C618        C710   1.437       .  S
O619       Al621   1.889       .  S
O620        C622   1.272       .  A
O620       Al621   1.967       .  S
Al621       O629   1.985       .  S
Al621       O631   1.889       .  S
Al621       O630   1.770       .  S
C622        O635   1.258       .  A
C622        C715   1.449       .  S
O623        C633   1.268       .  A
O623       Al625   1.949       .  S
O624        C637   1.269       .  A
O624       Al634   1.962       .  S
Al625       O638   1.898       .  S
Al625       O635   1.889       .  S
Al625       O630   1.777       .  S
O626        C633   1.243       .  A
O626       Al634   1.839       .  S
O627        C636   1.253       .  A
O627       Al634   1.867       .  S
O628       Al634   1.949       .  S
O629        C636   1.278       .  A
O630       Al634   1.766       .  S
O631        C632   1.263       .  A
C632        C743   1.433       .  S
C633        C843   1.404       .  S
C636        C711   1.442       .  S
C637        O638   1.260       .  A
C637        C826   1.449       .  S
O639        C654   1.269       .  A
O639       Al647   1.938       .  S
C640        O650   1.267       .  A
C640        O641   1.258       .  A
C640        C708   1.437       .  S
O641       Al643   1.889       .  S
O642        C644   1.272       .  A
O642       Al643   1.967       .  S
Al643       O651   1.985       .  S
Al643       O653   1.889       .  S
Al643       O652   1.770       .  S
C644        O657   1.258       .  A
C644        C768   1.450       .  S
O645        C655   1.268       .  A
O645       Al647   1.949       .  S
O646        C659   1.269       .  A
O646       Al656   1.961       .  S
Al647       O660   1.898       .  S
Al647       O657   1.889       .  S
Al647       O652   1.777       .  S
O648        C655   1.243       .  A
O648       Al656   1.839       .  S
O649        C658   1.253       .  A
O649       Al656   1.867       .  S
O650       Al656   1.948       .  S
O651        C658   1.278       .  A
O652       Al656   1.766       .  S
O653        C654   1.263       .  A
C654        C742   1.433       .  S
C655        C808   1.404       .  S
C658        C712   1.442       .  S
C659        O660   1.260       .  A
C659        C791   1.449       .  S
O661        C676   1.269       .  A
O661       Al669   1.937       .  S
C662        O672   1.266       .  A
C662        O663   1.258       .  A
C662        C709   1.437       .  S
O663       Al665   1.889   1_556  S
O664        C666   1.272       .  A
O664       Al665   1.968   1_556  S
Al665       O673   1.986       .  S
Al665       O675   1.889       .  S
Al665       O674   1.770       .  S
C666        O679   1.258       .  A
C666        C846   1.450       .  S
O667        C677   1.268   1_554  A
O667       Al669   1.949       .  S
O668        C681   1.269       .  A
O668       Al678   1.961       .  S
Al669       O682   1.898       .  S
Al669       O679   1.889   1_554  S
Al669       O674   1.777       .  S
O670        C677   1.243       .  A
O670       Al678   1.839   1_556  S
O671        C680   1.253       .  A
O671       Al678   1.867       .  S
O672       Al678   1.948   1_556  S
O673        C680   1.278       .  A
O674       Al678   1.766       .  S
O675        C676   1.263       .  A
C676        C753   1.433       .  S
C677        C713   1.404       .  S
C680        C706   1.442       .  S
C681        O682   1.260       .  A
C681        C720   1.448       .  S
O683        C698   1.269       .  A
O683       Al691   1.937       .  S
C684        O694   1.266       .  A
C684        O685   1.258       .  A
C684        C707   1.437       .  S
O685       Al687   1.889   1_556  S
O686        C688   1.272       .  A
O686       Al687   1.967   1_556  S
Al687       O695   1.985       .  S
Al687       O697   1.889       .  S
Al687       O696   1.770       .  S
C688        O701   1.258       .  A
C688        C809   1.450       .  S
O689        C699   1.268   1_554  A
O689       Al691   1.948       .  S
O690        C703   1.269       .  A
O690       Al700   1.961       .  S
Al691       O704   1.898       .  S
Al691       O701   1.889   1_554  S
Al691       O696   1.777       .  S
O692        C699   1.243       .  A
O692       Al700   1.839   1_556  S
O693        C702   1.253       .  A
O693       Al700   1.867       .  S
O694       Al700   1.948   1_556  S
O695        C702   1.278       .  A
O696       Al700   1.766       .  S
O697        C698   1.263       .  A
C698        C750   1.433       .  S
C699        C765   1.404       .  S
C702        C705   1.442       .  S
C703        O704   1.260       .  A
C703        C778   1.448       .  S
C705        C706   1.211       .  T
C707        C708   1.207       .  T
C709        C710   1.207       .  T
C711        C712   1.211       .  T
C713        C714   1.191       .  T
C715        C716   1.214       .  T
C717        C718   1.211       .  T
C719        C720   1.214       .  T
C721        C722   1.207       .  T
C723        C724   1.207       .  T
C725        C726   1.211       .  T
C727        C728   1.214   1_455  T
C729        C730   1.211       .  T
C731        C732   1.207       .  T
C733        C734   1.191       .  T
C735        C736   1.214       .  T
C737        C738   1.207       .  T
C739        C740   1.211       .  T
C741        C742   1.204       .  T
C743        C744   1.204       .  T
C745        C746   1.215       .  T
C747        C748   1.211       .  T
C749        C750   1.204       .  T
C751        C752   1.207       .  T
C753        C754   1.204       .  T
C755       C1652   1.191       .  T
C756       C1651   1.191   1_545  T
C757        C758   1.215       .  T
C759        C760   1.207       .  T
C761        C762   1.211       .  T
C763        C764   1.214       .  T
C765        C766   1.191       .  T
C767        C768   1.214       .  T
C769        C770   1.211       .  T
C771        C772   1.214       .  T
C773        C774   1.191       .  T
C775        C776   1.215       .  T
C777        C778   1.214       .  T
C779        C780   1.207       .  T
C781        C782   1.207       .  T
C783        C784   1.211       .  T
C785        C786   1.214       .  T
C787        C788   1.191       .  T
C789        C790   1.204       .  T
C791        C792   1.214       .  T
C793        C794   1.214       .  T
C795       C1692   1.191   1_545  T
C796       C1691   1.191       .  T
C797        C798   1.205       .  T
C799        C800   1.211       .  T
C801        C802   1.215       .  T
C803        C804   1.191       .  T
C805        C806   1.204       .  T
C807        C808   1.191       .  T
C809        C810   1.214       .  T
C811        C812   1.207       .  T
C813        C814   1.214       .  T
C815        C816   1.204       .  T
C817        C818   1.207       .  T
C819        C820   1.211       .  T
C821        C822   1.215       .  T
C823        C824   1.204       .  T
C825        C826   1.215       .  T
C827        C828   1.214       .  T
C829        C830   1.191       .  T
C831        C832   1.204       .  T
C833        C834   1.211       .  T
C835        C836   1.215   1_655  T
C837        C838   1.191       .  T
C839        C840   1.204       .  T
C841        C842   1.207       .  T
C843        C844   1.191       .  T
C845        C846   1.215       .  T
C847        C848   1.214       .  T
C849        C850   1.204       .  T
C851        C852   1.207       .  T
C853        C854   1.211       .  T
C855        C856   1.214       .  T
C857        C858   1.204       .  T
C859        C860   1.214       .  T
C861       C1758   1.191       .  T
C862       C1757   1.191   1_545  T
C863        C864   1.214   1_655  T
C865        C866   1.204       .  T
C867        C868   1.214       .  T
C869        C870   1.211       .  T
C871        C872   1.215       .  T
C873        C874   1.191       .  T
C875        C876   1.204       .  T
C877        C878   1.214   1_455  T
C879        C880   1.207       .  T
C881        C882   1.214       .  T
C883        C884   1.191       .  T
C885        C886   1.204       .  T
C887        C888   1.214       .  T
C889       C1786   1.191       .  T
C890       C1785   1.191   1_545  T
C891        C892   1.207       .  T
C893        C894   1.211       .  T
C895        C896   1.215       .  T
O897        C912   1.269       .  A
O897       Al905   1.937       .  S
C898        O908   1.266       .  A
C898        O899   1.258       .  A
C898       C1788   1.437       .  S
O899       Al901   1.889       .  S
O900        C902   1.272       .  A
O900       Al901   1.968       .  S
Al901       O909   1.985       .  S
Al901       O911   1.889       .  S
Al901       O910   1.769       .  S
C902        O915   1.258       .  A
C902       C1792   1.450       .  S
O903        C913   1.268       .  A
O903       Al905   1.949       .  S
O904        C917   1.269       .  A
O904       Al914   1.961       .  S
Al905       O918   1.898       .  S
Al905       O915   1.889       .  S
Al905       O910   1.777       .  S
O906        C913   1.243       .  A
O906       Al914   1.839       .  S
O907        C916   1.253       .  A
O907       Al914   1.867       .  S
O908       Al914   1.948       .  S
O909        C916   1.278       .  A
O910       Al914   1.766       .  S
O911        C912   1.263       .  A
C912       C1782   1.433       .  S
C913       C1785   1.404       .  S
C916       C1789   1.442       .  S
C917        O918   1.260       .  A
C917       C1783   1.448       .  S
O919        C934   1.269       .  A
C920        O930   1.266       .  A
C920        O921   1.258       .  A
C920       C1776   1.437       .  S
O921       Al923   1.890       .  S
O922        C924   1.272       .  A
Al923       O931   1.985       .  S
Al923       O932   1.770       .  S
C924       C1774   1.450       .  S
O925        C935   1.268       .  A
O925       Al927   1.948       .  S
O926        C939   1.269       .  A
O926       Al936   1.961       .  S
Al927       O940   1.898       .  S
Al927       O937   1.889       .  S
Al927       O932   1.777       .  S
O928        C935   1.243       .  A
O928       Al936   1.839       .  S
O929        C938   1.253       .  A
O929       Al936   1.867       .  S
O930       Al936   1.948       .  S
O931        C938   1.278       .  A
O932       Al936   1.766       .  S
O933        C934   1.263       .  A
C934       C1771   1.433       .  S
C935       C1780   1.404       .  S
C938       C1790   1.442       .  S
C939        O940   1.260       .  A
C939       C1777   1.449       .  S
O941        C956   1.269       .  A
C942        O952   1.267       .  A
C942        O943   1.258       .  A
C942       C1787   1.437       .  S
O943       Al945   1.889   1_556  S
O944        C946   1.272       .  A
Al945       O953   1.985       .  S
Al945       O954   1.770       .  S
C946       C1763   1.449       .  S
O947        C957   1.268   1_554  A
O947       Al949   1.949       .  S
O948        C961   1.269       .  A
O948       Al958   1.962       .  S
Al949       O962   1.898       .  S
Al949       O959   1.889   1_554  S
Al949       O954   1.777       .  S
O950        C957   1.243       .  A
O950       Al958   1.839   1_556  S
O951        C960   1.253       .  A
O951       Al958   1.867       .  S
O952       Al958   1.948   1_556  S
O953        C960   1.278       .  A
O954       Al958   1.766       .  S
O955        C956   1.263       .  A
C956       C1762   1.433       .  S
C957       C1769   1.404       .  S
C960       C1765   1.442       .  S
C961        O962   1.260       .  A
C961       C1767   1.449       .  S
O963        C978   1.269       .  A
O963       Al971   1.938       .  S
C964        O974   1.267       .  A
C964        O965   1.258       .  A
C964       C1775   1.437       .  S
O965       Al967   1.889   1_556  S
O966        C968   1.272       .  A
O966       Al967   1.967   1_556  S
Al967       O975   1.985       .  S
Al967       O977   1.889       .  S
Al967       O976   1.770       .  S
C968        O981   1.258       .  A
C968       C1759   1.450       .  S
O969        C979   1.268   1_554  A
O969       Al971   1.949       .  S
O970        C983   1.269       .  A
O970       Al980   1.961       .  S
Al971       O984   1.898       .  S
Al971       O981   1.889   1_554  S
Al971       O976   1.777       .  S
O972        C979   1.243       .  A
O972       Al980   1.839   1_556  S
O973        C982   1.253       .  A
O973       Al980   1.867       .  S
O974       Al980   1.949   1_556  S
O975        C982   1.278       .  A
O976       Al980   1.766       .  S
O977        C978   1.263       .  A
C978       C1753   1.433       .  S
C979       C1757   1.404       .  S
C982       C1766   1.442       .  S
C983        O984   1.260       .  A
C983       C1756   1.449       .  S
O985       C1000   1.260       .  A
O985       Al993   1.898       .  S
C986        O996   1.258       .  A
C986        O987   1.267       .  A
C986       C1747   1.437       .  S
O987       Al989   1.949       .  S
O988        C990   1.243       .  A
O988       Al989   1.839       .  S
Al989       O997   1.867       .  S
Al989       O999   1.961       .  S
Al989       O998   1.766       .  S
C990       O1003   1.268   1_455  A
C990       C1779   1.404   1_455  S
O991       C1001   1.258       .  A
O991       Al993   1.889       .  S
O992       C1005   1.263       .  A
O992      Al1002   1.889       .  S
Al993      O1006   1.938       .  S
Al993      O1003   1.949   1_455  S
Al993       O998   1.777       .  S
O994       C1001   1.272       .  A
O994      Al1002   1.967       .  S
O995       C1004   1.278       .  A
O995      Al1002   1.985       .  S
O996      Al1002   1.889       .  S
O997       C1004   1.253       .  A
O998      Al1002   1.770       .  S
O999       C1000   1.269       .  A
C1000      C1760   1.449       .  S
C1001      C1752   1.450   1_455  S
C1004      C1749   1.442       .  S
C1005      O1006   1.269       .  A
C1005      C1745   1.433       .  S
O1007      C1022   1.260       .  A
O1007     Al1015   1.899       .  S
C1008      O1018   1.258       .  A
C1008      O1009   1.267       .  A
C1008      C1737   1.437       .  S
O1009     Al1011   1.949       .  S
O1010      C1012   1.243       .  A
O1010     Al1011   1.839       .  S
Al1011     O1019   1.867       .  S
Al1011     O1021   1.962       .  S
Al1011     O1020   1.766       .  S
C1012      O1025   1.268       .  A
C1012      C1740   1.404       .  S
O1013      C1023   1.258       .  A
O1013     Al1015   1.889       .  S
O1014      C1027   1.263       .  A
O1014     Al1024   1.889       .  S
Al1015     O1028   1.937       .  S
Al1015     O1025   1.949       .  S
Al1015     O1020   1.777       .  S
O1016      C1023   1.272       .  A
O1016     Al1024   1.967       .  S
O1017      C1026   1.278       .  A
O1017     Al1024   1.985       .  S
O1018     Al1024   1.890       .  S
O1019      C1026   1.253       .  A
O1020     Al1024   1.770       .  S
O1021      C1022   1.269       .  A
C1022      C1741   1.449       .  S
C1023      C1743   1.449       .  S
C1026      C1750   1.442       .  S
C1027      O1028   1.269       .  A
C1027      C1735   1.433       .  S
O1029      C1044   1.260       .  A
O1029     Al1037   1.898       .  S
C1030      O1040   1.258       .  A
C1030      O1031   1.266       .  A
C1030      C1748   1.437       .  S
O1031     Al1033   1.948       .  S
O1032      C1034   1.243       .  A
O1032     Al1033   1.839       .  S
Al1033     O1041   1.867       .  S
Al1033     O1043   1.961       .  S
Al1033     O1042   1.766       .  S
C1034      O1047   1.268   1_455  A
C1034      C1733   1.404   1_455  S
O1035      C1045   1.258       .  A
O1035     Al1037   1.889       .  S
O1036      C1049   1.263       .  A
O1036     Al1046   1.889       .  S
Al1037     O1050   1.937       .  S
Al1037     O1047   1.949   1_455  S
Al1037     O1042   1.777       .  S
O1038      C1045   1.272       .  A
O1038     Al1046   1.967       .  S
O1039      C1048   1.277       .  A
O1039     Al1046   1.985       .  S
O1040     Al1046   1.890       .  S
O1041      C1048   1.253       .  A
O1042     Al1046   1.770       .  S
O1043      C1044   1.269       .  A
C1044      C1732   1.449       .  S
C1045      C1778   1.449   1_455  S
C1048      C1729   1.442       .  S
C1049      O1050   1.269       .  A
C1049      C1727   1.433       .  S
O1051      C1066   1.260       .  A
O1051     Al1059   1.898       .  S
C1052      O1062   1.258       .  A
C1052      O1053   1.266       .  A
C1052      C1738   1.437       .  S
O1053     Al1055   1.948       .  S
O1054      C1056   1.243       .  A
O1054     Al1055   1.839       .  S
Al1055     O1063   1.867       .  S
Al1055     O1065   1.961       .  S
Al1055     O1064   1.766       .  S
C1056      O1069   1.268       .  A
C1056      C1725   1.404       .  S
O1057      C1067   1.258       .  A
O1057     Al1059   1.889       .  S
O1058      C1071   1.263       .  A
O1058     Al1068   1.889       .  S
Al1059     O1072   1.938       .  S
Al1059     O1069   1.949       .  S
Al1059     O1064   1.777       .  S
O1060      C1067   1.272       .  A
O1060     Al1068   1.967       .  S
O1061      C1070   1.278       .  A
O1061     Al1068   1.985       .  S
O1062     Al1068   1.890       .  S
O1063      C1070   1.253       .  A
O1064     Al1068   1.770       .  S
O1065      C1066   1.269       .  A
C1066      C1724   1.448       .  S
C1067      C1721   1.450       .  S
C1070      C1730   1.442       .  S
C1071      O1072   1.269       .  A
C1071      C1720   1.433       .  S
O1073      C1088   1.260       .  A
O1073     Al1081   1.898       .  S
C1074      O1084   1.258       .  A
C1074      O1075   1.266       .  A
C1074      C1713   1.437       .  S
O1075     Al1077   1.948       .  S
O1076      C1078   1.243       .  A
O1076     Al1077   1.839       .  S
Al1077     O1085   1.867       .  S
Al1077     O1087   1.961       .  S
Al1077     O1086   1.766       .  S
C1078      O1091   1.268       .  A
C1078      C1786   1.404       .  S
O1079      C1089   1.258       .  A
O1079     Al1081   1.889       .  S
O1080      C1093   1.263       .  A
O1080     Al1090   1.889       .  S
Al1081     O1094   1.938       .  S
Al1081     O1091   1.949       .  S
Al1081     O1086   1.777       .  S
O1082      C1089   1.272       .  A
O1082     Al1090   1.967       .  S
O1083      C1092   1.278       .  A
O1083     Al1090   1.985       .  S
O1084     Al1090   1.890       .  S
O1085      C1092   1.253       .  A
O1086     Al1090   1.770       .  S
O1087      C1088   1.269       .  A
C1088      C1764   1.448       .  S
C1089      C1717   1.450       .  S
C1092      C1715   1.442       .  S
C1093      O1094   1.269       .  A
C1093      C1712   1.433       .  S
O1095      C1110   1.260       .  A
O1095     Al1103   1.898       .  S
C1096      O1106   1.258       .  A
C1096      O1097   1.266       .  A
C1096      C1708   1.437       .  S
O1097     Al1099   1.948       .  S
O1098      C1100   1.243       .  A
O1098     Al1099   1.839       .  S
Al1099     O1107   1.867       .  S
Al1099     O1109   1.961       .  S
Al1099     O1108   1.766       .  S
C1100      O1113   1.268       .  A
C1100      C1703   1.404       .  S
O1101     Al1103   1.889       .  S
O1102      C1115   1.263       .  A
Al1103     O1113   1.949       .  S
Al1103     O1108   1.777       .  S
O1104      C1111   1.272       .  A
O1105      C1114   1.277       .  A
O1105     Al1112   1.985       .  S
O1106     Al1112   1.890       .  S
O1107      C1114   1.253       .  A
O1108     Al1112   1.770       .  S
O1109      C1110   1.269       .  A
C1110      C1706   1.449       .  S
C1111      C1709   1.449       .  S
C1114      C1716   1.442       .  S
C1115      O1116   1.269       .  A
C1115      C1701   1.433       .  S
O1117      C1132   1.260       .  A
O1117     Al1125   1.898       .  S
C1118      O1128   1.258       .  A
C1118      O1119   1.267       .  A
C1118      C1714   1.437       .  S
O1119     Al1121   1.949       .  S
O1120      C1122   1.243       .  A
O1120     Al1121   1.839       .  S
Al1121     O1129   1.867       .  S
Al1121     O1131   1.961       .  S
Al1121     O1130   1.766       .  S
C1122      O1135   1.268       .  A
C1122      C1700   1.404       .  S
O1123     Al1125   1.889       .  S
O1124      C1137   1.263       .  A
Al1125     O1135   1.949       .  S
Al1125     O1130   1.777       .  S
O1126      C1133   1.272       .  A
O1127      C1136   1.277       .  A
O1127     Al1134   1.985       .  S
O1128     Al1134   1.890       .  S
O1129      C1136   1.253       .  A
O1130     Al1134   1.770       .  S
O1131      C1132   1.269       .  A
C1132      C1697   1.449       .  S
C1133      C1784   1.449       .  S
C1136      C1695   1.442       .  S
C1137      O1138   1.269       .  A
C1137      C1693   1.433       .  S
O1139      C1154   1.260       .  A
O1139     Al1147   1.898       .  S
C1140      O1150   1.258       .  A
C1140      O1141   1.266       .  A
C1140      C1707   1.437       .  S
O1141     Al1143   1.948       .  S
O1142      C1144   1.243       .  A
O1142     Al1143   1.839       .  S
Al1143     O1151   1.867       .  S
Al1143     O1153   1.961       .  S
Al1143     O1152   1.766       .  S
C1144      O1157   1.268       .  A
C1144      C1691   1.404       .  S
O1145      C1155   1.258       .  A
O1145     Al1147   1.889       .  S
O1146      C1159   1.263       .  A
O1146     Al1156   1.889       .  S
Al1147     O1160   1.938       .  S
Al1147     O1157   1.949       .  S
Al1147     O1152   1.777       .  S
O1148      C1155   1.272       .  A
O1148     Al1156   1.967       .  S
O1149      C1158   1.278       .  A
O1149     Al1156   1.985       .  S
O1150     Al1156   1.890       .  S
O1151      C1158   1.253       .  A
O1152     Al1156   1.770       .  S
O1153      C1154   1.269       .  A
C1154      C1690   1.448       .  S
C1155      C1688   1.450       .  S
C1158      C1696   1.442       .  S
C1159      O1160   1.269       .  A
C1159      C1685   1.433       .  S
O1161      C1176   1.260       .  A
O1161     Al1169   1.898       .  S
C1162      O1172   1.258       .  A
C1162      O1163   1.266       .  A
C1162      C1678   1.437       .  S
O1163     Al1165   1.948       .  S
O1164      C1166   1.243       .  A
O1164     Al1165   1.839       .  S
Al1165     O1173   1.867       .  S
Al1165     O1175   1.961       .  S
Al1165     O1174   1.766       .  S
C1166      O1179   1.268       .  A
C1166      C1684   1.404       .  S
O1167      C1177   1.258       .  A
O1167     Al1169   1.889       .  S
O1168      C1181   1.263       .  A
O1168     Al1178   1.889       .  S
Al1169     O1182   1.938       .  S
Al1169     O1179   1.949       .  S
Al1169     O1174   1.777       .  S
O1170      C1177   1.272       .  A
O1170     Al1178   1.967       .  S
O1171      C1180   1.278       .  A
O1171     Al1178   1.985       .  S
O1172     Al1178   1.890       .  S
O1173      C1180   1.253       .  A
O1174     Al1178   1.770       .  S
O1175      C1176   1.269       .  A
C1176      C1681   1.448       .  S
C1177      C1768   1.450       .  S
C1180      C1679   1.442       .  S
C1181      O1182   1.269       .  A
C1181      C1694   1.433       .  S
O1183      C1198   1.260       .  A
O1183     Al1191   1.898       .  S
C1184      O1194   1.258       .  A
C1184      O1185   1.266       .  A
C1184      C1675   1.437       .  S
O1185     Al1187   1.948       .  S
O1186      C1188   1.243       .  A
O1186     Al1187   1.839       .  S
Al1187     O1195   1.867       .  S
Al1187     O1197   1.961       .  S
Al1187     O1196   1.766       .  S
C1188      O1201   1.268       .  A
C1188      C1670   1.404       .  S
O1189      C1199   1.258       .  A
O1189     Al1191   1.889       .  S
O1190      C1203   1.263       .  A
O1190     Al1200   1.889       .  S
Al1191     O1204   1.937       .  S
Al1191     O1201   1.949       .  S
Al1191     O1196   1.777       .  S
O1192      C1199   1.272       .  A
O1192     Al1200   1.967       .  S
O1193      C1202   1.277       .  A
O1193     Al1200   1.985       .  S
O1194     Al1200   1.890       .  S
O1195      C1202   1.253       .  A
O1196     Al1200   1.770       .  S
O1197      C1198   1.269       .  A
C1198      C1671   1.449       .  S
C1199      C1673   1.449       .  S
C1202      C1680   1.442       .  S
C1203      O1204   1.269       .  A
C1203      C1686   1.433       .  S
O1205      C1220   1.260       .  A
O1205     Al1213   1.898       .  S
C1206      O1216   1.258       .  A
C1206      O1207   1.267       .  A
C1206      C1677   1.437       .  S
O1207     Al1209   1.949   1_554  S
O1208      C1210   1.243       .  A
O1208     Al1209   1.839       .  S
Al1209     O1217   1.867       .  S
Al1209     O1219   1.962       .  S
Al1209     O1218   1.766       .  S
C1210      O1223   1.268       .  A
C1210      C1770   1.404       .  S
O1211      C1221   1.258       .  A
O1211     Al1213   1.889   1_554  S
O1212      C1225   1.263       .  A
O1212     Al1222   1.889       .  S
Al1213     O1226   1.937       .  S
Al1213     O1223   1.949       .  S
Al1213     O1218   1.777       .  S
O1214      C1221   1.272       .  A
O1214     Al1222   1.967   1_554  S
O1215      C1224   1.277       .  A
O1215     Al1222   1.985       .  S
O1216     Al1222   1.890   1_554  S
O1217      C1224   1.253       .  A
O1218     Al1222   1.770       .  S
O1219      C1220   1.269       .  A
C1220      C1791   1.449       .  S
C1221      C1667   1.449       .  S
C1224      C1665   1.442       .  S
C1225      O1226   1.269       .  A
C1225      C1711   1.433       .  S
O1227      C1242   1.260       .  A
O1227     Al1235   1.898       .  S
C1228      O1238   1.258       .  A
C1228      O1229   1.266       .  A
C1228      C1676   1.437       .  S
O1229     Al1231   1.948   1_554  S
O1230      C1232   1.243       .  A
O1230     Al1231   1.839       .  S
Al1231     O1239   1.867       .  S
Al1231     O1241   1.961       .  S
Al1231     O1240   1.766       .  S
C1232      O1245   1.268       .  A
C1232      C1662   1.404       .  S
O1233      C1243   1.258       .  A
O1233     Al1235   1.889   1_554  S
O1234      C1247   1.263       .  A
O1234     Al1244   1.889       .  S
Al1235     O1248   1.938       .  S
Al1235     O1245   1.949       .  S
Al1235     O1240   1.777       .  S
O1236      C1243   1.272       .  A
O1236     Al1244   1.967   1_554  S
O1237      C1246   1.278       .  A
O1237     Al1244   1.985       .  S
O1238     Al1244   1.890   1_554  S
O1239      C1246   1.253       .  A
O1240     Al1244   1.770       .  S
O1241      C1242   1.269       .  A
C1242      C1663   1.449       .  S
C1243      C1659   1.450       .  S
C1246      C1666   1.442       .  S
C1247      O1248   1.269       .  A
C1247      C1702   1.433       .  S
O1249      C1264   1.269       .  A
O1249     Al1257   1.937       .  S
C1250      O1260   1.267       .  A
C1250      O1251   1.258       .  A
C1250      C1656   1.437       .  S
O1251     Al1253   1.890       .  S
O1252      C1254   1.272       .  A
O1252     Al1253   1.967       .  S
Al1253     O1261   1.985       .  S
Al1253     O1263   1.889       .  S
Al1253     O1262   1.770       .  S
C1254      O1267   1.258       .  A
C1254      C1723   1.449       .  S
O1255      C1265   1.268       .  A
O1255     Al1257   1.949       .  S
O1256      C1269   1.269       .  A
O1256     Al1266   1.962       .  S
Al1257     O1270   1.898       .  S
Al1257     O1267   1.889       .  S
Al1257     O1262   1.777       .  S
O1258      C1265   1.243       .  A
O1258     Al1266   1.839       .  S
O1259      C1268   1.253       .  A
O1259     Al1266   1.867       .  S
O1260     Al1266   1.949       .  S
O1261      C1268   1.277       .  A
O1262     Al1266   1.766       .  S
O1263      C1264   1.263       .  A
C1264      C1650   1.433       .  S
C1265      C1651   1.404       .  S
C1268      C1657   1.442       .  S
C1269      O1270   1.260       .  A
C1269      C1653   1.449       .  S
O1271      C1286   1.269       .  A
C1272      O1282   1.267       .  A
C1272      O1273   1.258       .  A
C1272      C1648   1.437       .  S
O1273     Al1275   1.889       .  S
O1274      C1276   1.272       .  A
Al1275     O1283   1.985       .  S
Al1275     O1284   1.770       .  S
C1276      C1689   1.449       .  S
O1277      C1287   1.268       .  A
O1277     Al1279   1.949       .  S
O1278      C1291   1.269       .  A
O1278     Al1288   1.961       .  S
Al1279     O1292   1.898       .  S
Al1279     O1289   1.889       .  S
Al1279     O1284   1.777       .  S
O1280      C1287   1.243       .  A
O1280     Al1288   1.839       .  S
O1281      C1290   1.253       .  A
O1281     Al1288   1.867       .  S
O1282     Al1288   1.949       .  S
O1283      C1290   1.277       .  A
O1284     Al1288   1.766       .  S
O1285      C1286   1.263       .  A
C1286      C1645   1.433       .  S
C1287      C1669   1.404       .  S
C1290      C1658   1.442       .  S
C1291      O1292   1.260       .  A
C1291      C1660   1.449       .  S
O1293      C1308   1.269       .  A
C1294      O1304   1.266       .  A
C1294      O1295   1.258       .  A
C1294      C1655   1.437       .  S
O1295     Al1297   1.889       .  S
O1296      C1298   1.272       .  A
Al1297     O1305   1.986       .  S
Al1297     O1306   1.770       .  S
C1298      C1641   1.450       .  S
O1299      C1309   1.268       .  A
O1299     Al1301   1.949       .  S
O1300      C1313   1.269       .  A
O1300     Al1310   1.961       .  S
Al1301     O1314   1.898       .  S
Al1301     O1311   1.889       .  S
Al1301     O1306   1.777       .  S
O1302      C1309   1.243       .  A
O1302     Al1310   1.839       .  S
O1303      C1312   1.253       .  A
O1303     Al1310   1.867       .  S
O1304     Al1310   1.948       .  S
O1305      C1312   1.278       .  A
O1306     Al1310   1.766       .  S
O1307      C1308   1.263       .  A
C1308      C1640   1.433       .  S
C1309      C1726   1.404       .  S
C1312      C1643   1.442       .  S
C1313      O1314   1.260       .  A
C1313      C1744   1.448       .  S
O1315      C1330   1.269       .  A
O1315     Al1323   1.937       .  S
C1316      O1326   1.266       .  A
C1316      O1317   1.258       .  A
C1316      C1647   1.437       .  S
O1317     Al1319   1.889       .  S
O1318      C1320   1.272       .  A
O1318     Al1319   1.967       .  S
Al1319     O1327   1.985       .  S
Al1319     O1329   1.889       .  S
Al1319     O1328   1.770       .  S
C1320      O1333   1.258       .  A
C1320      C1672   1.450       .  S
O1321      C1331   1.268       .  A
O1321     Al1323   1.949       .  S
O1322      C1335   1.269       .  A
O1322     Al1332   1.961       .  S
Al1323     O1336   1.898       .  S
Al1323     O1333   1.889       .  S
Al1323     O1328   1.777       .  S
O1324      C1331   1.243       .  A
O1324     Al1332   1.839       .  S
O1325      C1334   1.253       .  A
O1325     Al1332   1.867       .  S
O1326     Al1332   1.948       .  S
O1327      C1334   1.278       .  A
O1328     Al1332   1.766       .  S
O1329      C1330   1.263       .  A
C1330      C1637   1.433       .  S
C1331      C1692   1.404       .  S
C1334      C1644   1.442       .  S
C1335      O1336   1.260       .  A
C1335      C1710   1.448       .  S
O1337      C1352   1.269       .  A
O1337     Al1345   1.937       .  S
C1338      O1348   1.266       .  A
C1338      O1339   1.258       .  A
C1338      C1634   1.437       .  S
O1339     Al1341   1.889       .  S
O1340      C1342   1.272       .  A
O1340     Al1341   1.968       .  S
Al1341     O1349   1.985       .  S
Al1341     O1351   1.889       .  S
Al1341     O1350   1.770       .  S
C1342      O1355   1.258       .  A
C1342      C1698   1.450       .  S
O1343      C1353   1.268       .  A
O1343     Al1345   1.949       .  S
O1344      C1357   1.269       .  A
O1344     Al1354   1.961       .  S
Al1345     O1358   1.898       .  S
Al1345     O1355   1.889       .  S
Al1345     O1350   1.777       .  S
O1346      C1353   1.243       .  A
O1346     Al1354   1.839       .  S
O1347      C1356   1.253       .  A
O1347     Al1354   1.867       .  S
O1348     Al1354   1.948       .  S
O1349      C1356   1.278       .  A
O1350     Al1354   1.766       .  S
O1351      C1352   1.263       .  A
C1352      C1761   1.433       .  S
C1353      C1683   1.404       .  S
C1356      C1635   1.442       .  S
C1357      O1358   1.260       .  A
C1357      C1668   1.448       .  S
O1359      C1374   1.269       .  A
O1359     Al1367   1.937       .  S
C1360      O1370   1.266       .  A
C1360      O1361   1.258       .  A
C1360      C1628   1.437       .  S
O1361     Al1363   1.889       .  S
O1362      C1364   1.272       .  A
O1362     Al1363   1.967       .  S
Al1363     O1371   1.985       .  S
Al1363     O1373   1.889       .  S
Al1363     O1372   1.770       .  S
C1364      O1377   1.258       .  A
C1364      C1731   1.450       .  S
O1365      C1375   1.268       .  A
O1365     Al1367   1.949       .  S
O1366      C1379   1.269       .  A
O1366     Al1376   1.961       .  S
Al1367     O1380   1.898       .  S
Al1367     O1377   1.889       .  S
Al1367     O1372   1.777       .  S
O1368      C1375   1.243       .  A
O1368     Al1376   1.839       .  S
O1369      C1378   1.253       .  A
O1369     Al1376   1.867       .  S
O1370     Al1376   1.948       .  S
O1371      C1378   1.278       .  A
O1372     Al1376   1.766       .  S
O1373      C1374   1.263       .  A
C1374      C1754   1.433       .  S
C1375      C1630   1.404       .  S
C1378      C1636   1.442       .  S
C1379      O1380   1.260       .  A
C1379      C1631   1.448       .  S
O1381      C1396   1.269       .  A
O1381     Al1389   1.937       .  S
C1382      O1392   1.267       .  A
C1382      O1383   1.258       .  A
C1382      C1633   1.437       .  S
O1383     Al1385   1.889       .  S
O1384      C1386   1.272       .  A
O1384     Al1385   1.967       .  S
Al1385     O1393   1.985       .  S
Al1385     O1395   1.889       .  S
Al1385     O1394   1.770       .  S
C1386      O1399   1.258       .  A
C1386      C1682   1.449       .  S
O1387      C1397   1.268       .  A
O1387     Al1389   1.949       .  S
O1388      C1401   1.269       .  A
O1388     Al1398   1.962       .  S
Al1389     O1402   1.898       .  S
Al1389     O1399   1.889       .  S
Al1389     O1394   1.777       .  S
O1390      C1397   1.243       .  A
O1390     Al1398   1.839       .  S
O1391      C1400   1.253       .  A
O1391     Al1398   1.867       .  S
O1392     Al1398   1.948       .  S
O1393      C1400   1.277       .  A
O1394     Al1398   1.766       .  S
O1395      C1396   1.263       .  A
C1396      C1781   1.433       .  S
C1397      C1699   1.404       .  S
C1400      C1625   1.442       .  S
C1401      O1402   1.260       .  A
C1401      C1718   1.449       .  S
O1403      C1418   1.269       .  A
O1403     Al1411   1.938       .  S
C1404      O1414   1.267       .  A
C1404      O1405   1.258       .  A
C1404      C1627   1.437       .  S
O1405     Al1407   1.889       .  S
O1406      C1408   1.272       .  A
O1406     Al1407   1.967       .  S
Al1407     O1415   1.985       .  S
Al1407     O1417   1.889       .  S
Al1407     O1416   1.770       .  S
C1408      O1421   1.258       .  A
C1408      C1624   1.450       .  S
O1409      C1419   1.268       .  A
O1409     Al1411   1.949       .  S
O1410      C1423   1.269       .  A
O1410     Al1420   1.961       .  S
Al1411     O1424   1.898       .  S
Al1411     O1421   1.889       .  S
Al1411     O1416   1.777       .  S
O1412      C1419   1.243       .  A
O1412     Al1420   1.839       .  S
O1413      C1422   1.253       .  A
O1413     Al1420   1.867       .  S
O1414     Al1420   1.948       .  S
O1415      C1422   1.278       .  A
O1416     Al1420   1.766       .  S
O1417      C1418   1.263       .  A
C1418      C1772   1.433       .  S
C1419      C1734   1.404       .  S
C1422      C1626   1.442       .  S
C1423      O1424   1.260       .  A
C1423      C1751   1.449       .  S
O1425      C1440   1.260       .  A
O1425     Al1433   1.898       .  S
C1426      O1436   1.258       .  A
C1426      O1427   1.267       .  A
C1426      C1619   1.437       .  S
O1427     Al1429   1.948       .  S
O1428      C1430   1.243       .  A
O1428     Al1429   1.839       .  S
Al1429     O1437   1.867       .  S
Al1429     O1439   1.961       .  S
Al1429     O1438   1.766       .  S
C1430      O1443   1.268   1_455  A
C1430      C1629   1.404   1_455  S
O1431     Al1433   1.889       .  S
O1432      C1445   1.263       .  A
Al1433     O1443   1.949   1_455  S
Al1433     O1438   1.777       .  S
O1434      C1441   1.272       .  A
O1435      C1444   1.278       .  A
O1435     Al1442   1.985       .  S
O1436     Al1442   1.890       .  S
O1437      C1444   1.253       .  A
O1438     Al1442   1.770       .  S
O1439      C1440   1.269       .  A
C1440      C1623   1.449       .  S
C1441      C1755   1.450   1_455  S
C1444      C1621   1.442       .  S
C1445      O1446   1.269       .  A
C1445      C1728   1.433       .  S
O1447      C1462   1.260       .  A
O1447     Al1455   1.898       .  S
C1448      O1458   1.258       .  A
C1448      O1449   1.267       .  A
C1448      C1617   1.437       .  S
O1449     Al1451   1.949       .  S
O1450      C1452   1.243       .  A
O1450     Al1451   1.839       .  S
Al1451     O1459   1.867       .  S
Al1451     O1461   1.962       .  S
Al1451     O1460   1.766       .  S
C1452      O1465   1.268       .  A
C1452      C1652   1.404       .  S
O1453      C1463   1.258       .  A
O1453     Al1455   1.889       .  S
O1454      C1467   1.263       .  A
O1454     Al1464   1.889       .  S
Al1455     O1468   1.937       .  S
Al1455     O1465   1.949       .  S
Al1455     O1460   1.777       .  S
O1456      C1463   1.272       .  A
O1456     Al1464   1.967       .  S
O1457      C1466   1.278       .  A
O1457     Al1464   1.985       .  S
O1458     Al1464   1.890       .  S
O1459      C1466   1.253       .  A
O1460     Al1464   1.770       .  S
O1461      C1462   1.269       .  A
C1462      C1642   1.449       .  S
C1463      C1615   1.449       .  S
C1466      C1622   1.442       .  S
C1467      O1468   1.269       .  A
C1467      C1719   1.433       .  S
O1469      C1484   1.260       .  A
O1469     Al1477   1.898       .  S
C1470      O1480   1.258       .  A
C1470      O1471   1.266       .  A
C1470      C1620   1.437       .  S
O1471     Al1473   1.948   1_554  S
O1472      C1474   1.243       .  A
O1472     Al1473   1.839       .  S
Al1473     O1481   1.867       .  S
Al1473     O1483   1.961       .  S
Al1473     O1482   1.766       .  S
C1474      O1487   1.268   1_455  A
C1474      C1758   1.404   1_455  S
O1475      C1485   1.258       .  A
O1475     Al1477   1.889   1_554  S
O1476      C1489   1.263       .  A
O1476     Al1486   1.889       .  S
Al1477     O1490   1.937       .  S
Al1477     O1487   1.949   1_455  S
Al1477     O1482   1.777       .  S
O1478      C1485   1.272       .  A
O1478     Al1486   1.967   1_554  S
O1479      C1488   1.277       .  A
O1479     Al1486   1.985       .  S
O1480     Al1486   1.890   1_554  S
O1481      C1488   1.253       .  A
O1482     Al1486   1.770       .  S
O1483      C1484   1.269       .  A
C1484      C1773   1.449       .  S
C1485      C1632   1.449   1_455  S
C1488      C1613   1.442       .  S
C1489      O1490   1.269       .  A
C1489      C1746   1.433       .  S
O1491      C1506   1.260       .  A
O1491     Al1499   1.898       .  S
C1492      O1502   1.258       .  A
C1492      O1493   1.267       .  A
C1492      C1618   1.437       .  S
O1493     Al1495   1.948   1_554  S
O1494      C1496   1.243       .  A
O1494     Al1495   1.839       .  S
Al1495     O1503   1.867       .  S
Al1495     O1505   1.961       .  S
Al1495     O1504   1.766       .  S
C1496      O1509   1.268       .  A
C1496      C1610   1.404       .  S
O1497     Al1499   1.889   1_554  S
O1498      C1511   1.263       .  A
Al1499     O1509   1.949       .  S
Al1499     O1504   1.777       .  S
O1500      C1507   1.272       .  A
O1501      C1510   1.277       .  A
O1501     Al1508   1.985       .  S
O1502     Al1508   1.889   1_554  S
O1503      C1510   1.253       .  A
O1504     Al1508   1.770       .  S
O1505      C1506   1.269       .  A
C1506      C1612   1.448       .  S
C1507      C1654   1.450       .  S
C1510      C1614   1.442       .  S
C1511      O1512   1.269       .  A
C1511      C1736   1.433       .  S
O1513      C1528   1.269       .  A
O1513     Al1521   1.937       .  S
C1514      O1524   1.267       .  A
C1514      O1515   1.258       .  A
C1514      C1606   1.437       .  S
O1515     Al1517   1.889       .  S
O1516      C1518   1.272       .  A
O1516     Al1517   1.967       .  S
Al1517     O1525   1.985       .  S
Al1517     O1527   1.889       .  S
Al1517     O1526   1.770       .  S
C1518      O1531   1.258       .  A
C1518      C1611   1.449       .  S
O1519      C1529   1.268       .  A
O1519     Al1521   1.949       .  S
O1520      C1533   1.269       .  A
O1520     Al1530   1.962       .  S
Al1521     O1534   1.898       .  S
Al1521     O1531   1.889       .  S
Al1521     O1526   1.777       .  S
O1522      C1529   1.243       .  A
O1522     Al1530   1.839       .  S
O1523      C1532   1.253       .  A
O1523     Al1530   1.867       .  S
O1524     Al1530   1.949       .  S
O1525      C1532   1.278       .  A
O1526     Al1530   1.766       .  S
O1527      C1528   1.263       .  A
C1528      C1639   1.433       .  S
C1529      C1739   1.404       .  S
C1532      C1607   1.442       .  S
C1533      O1534   1.260       .  A
C1533      C1722   1.449       .  S
O1535      C1550   1.269       .  A
O1535     Al1543   1.938       .  S
C1536      O1546   1.267       .  A
C1536      O1537   1.258       .  A
C1536      C1604   1.437       .  S
O1537     Al1539   1.889       .  S
O1538      C1540   1.272       .  A
O1538     Al1539   1.967       .  S
Al1539     O1547   1.985       .  S
Al1539     O1549   1.889       .  S
Al1539     O1548   1.770       .  S
C1540      O1553   1.258       .  A
C1540      C1664   1.450       .  S
O1541      C1551   1.268       .  A
O1541     Al1543   1.949       .  S
O1542      C1555   1.269       .  A
O1542     Al1552   1.961       .  S
Al1543     O1556   1.898       .  S
Al1543     O1553   1.889       .  S
Al1543     O1548   1.777       .  S
O1544      C1551   1.243       .  A
O1544     Al1552   1.839       .  S
O1545      C1554   1.253       .  A
O1545     Al1552   1.867       .  S
O1546     Al1552   1.948       .  S
O1547      C1554   1.278       .  A
O1548     Al1552   1.766       .  S
O1549      C1550   1.263       .  A
C1550      C1638   1.433       .  S
C1551      C1704   1.404       .  S
C1554      C1608   1.442       .  S
C1555      O1556   1.260       .  A
C1555      C1687   1.449       .  S
O1557      C1572   1.269       .  A
O1557     Al1565   1.937       .  S
C1558      O1568   1.266       .  A
C1558      O1559   1.258       .  A
C1558      C1605   1.437       .  S
O1559     Al1561   1.889   1_556  S
O1560      C1562   1.272       .  A
O1560     Al1561   1.968   1_556  S
Al1561     O1569   1.986       .  S
Al1561     O1571   1.889       .  S
Al1561     O1570   1.770       .  S
C1562      O1575   1.258       .  A
C1562      C1742   1.450       .  S
O1563      C1573   1.268   1_554  A
O1563     Al1565   1.949       .  S
O1564      C1577   1.269       .  A
O1564     Al1574   1.961       .  S
Al1565     O1578   1.898       .  S
Al1565     O1575   1.889   1_554  S
Al1565     O1570   1.777       .  S
O1566      C1573   1.243       .  A
O1566     Al1574   1.839   1_556  S
O1567      C1576   1.253       .  A
O1567     Al1574   1.867       .  S
O1568     Al1574   1.948   1_556  S
O1569      C1576   1.278       .  A
O1570     Al1574   1.766       .  S
O1571      C1572   1.263       .  A
C1572      C1649   1.433       .  S
C1573      C1609   1.404       .  S
C1576      C1602   1.442       .  S
C1577      O1578   1.260       .  A
C1577      C1616   1.448       .  S
O1579      C1594   1.269       .  A
O1579     Al1587   1.937       .  S
C1580      O1590   1.266       .  A
C1580      O1581   1.258       .  A
C1580      C1603   1.437       .  S
O1581     Al1583   1.889   1_556  S
O1582      C1584   1.272       .  A
O1582     Al1583   1.967   1_556  S
Al1583     O1591   1.985       .  S
Al1583     O1593   1.889       .  S
Al1583     O1592   1.770       .  S
C1584      O1597   1.258       .  A
C1584      C1705   1.450       .  S
O1585      C1595   1.268   1_554  A
O1585     Al1587   1.948       .  S
O1586      C1599   1.269       .  A
O1586     Al1596   1.961       .  S
Al1587     O1600   1.898       .  S
Al1587     O1597   1.889   1_554  S
Al1587     O1592   1.777       .  S
O1588      C1595   1.243       .  A
O1588     Al1596   1.839   1_556  S
O1589      C1598   1.253       .  A
O1589     Al1596   1.867       .  S
O1590     Al1596   1.948   1_556  S
O1591      C1598   1.278       .  A
O1592     Al1596   1.766       .  S
O1593      C1594   1.263       .  A
C1594      C1646   1.433       .  S
C1595      C1661   1.404       .  S
C1598      C1601   1.442       .  S
C1599      O1600   1.260       .  A
C1599      C1674   1.448       .  S
C1601      C1602   1.211       .  T
C1603      C1604   1.207       .  T
C1605      C1606   1.207       .  T
C1607      C1608   1.211       .  T
C1609      C1610   1.191       .  T
C1611      C1612   1.214       .  T
C1613      C1614   1.211       .  T
C1615      C1616   1.214       .  T
C1617      C1618   1.207       .  T
C1619      C1620   1.207       .  T
C1621      C1622   1.211       .  T
C1623      C1624   1.214   1_455  T
C1625      C1626   1.211       .  T
C1627      C1628   1.207       .  T
C1629      C1630   1.191       .  T
C1631      C1632   1.214       .  T
C1633      C1634   1.207       .  T
C1635      C1636   1.211       .  T
C1637      C1638   1.204       .  T
C1639      C1640   1.204       .  T
C1641      C1642   1.215       .  T
C1643      C1644   1.211       .  T
C1645      C1646   1.204       .  T
C1647      C1648   1.207       .  T
C1649      C1650   1.204       .  T
C1653      C1654   1.215       .  T
C1655      C1656   1.207       .  T
C1657      C1658   1.211       .  T
C1659      C1660   1.214       .  T
C1661      C1662   1.191       .  T
C1663      C1664   1.214       .  T
C1665      C1666   1.211       .  T
C1667      C1668   1.214       .  T
C1669      C1670   1.191       .  T
C1671      C1672   1.215       .  T
C1673      C1674   1.214       .  T
C1675      C1676   1.207       .  T
C1677      C1678   1.207       .  T
C1679      C1680   1.211       .  T
C1681      C1682   1.214       .  T
C1683      C1684   1.191       .  T
C1685      C1686   1.204       .  T
C1687      C1688   1.214       .  T
C1689      C1690   1.214       .  T
C1693      C1694   1.205       .  T
C1695      C1696   1.211       .  T
C1697      C1698   1.215       .  T
C1699      C1700   1.191       .  T
C1701      C1702   1.204       .  T
C1703      C1704   1.191       .  T
C1705      C1706   1.214       .  T
C1707      C1708   1.207       .  T
C1709      C1710   1.214       .  T
C1711      C1712   1.204       .  T
C1713      C1714   1.207       .  T
C1715      C1716   1.211       .  T
C1717      C1718   1.215       .  T
C1719      C1720   1.204       .  T
C1721      C1722   1.215       .  T
C1723      C1724   1.214       .  T
C1725      C1726   1.191       .  T
C1727      C1728   1.204       .  T
C1729      C1730   1.211       .  T
C1731      C1732   1.215   1_655  T
C1733      C1734   1.191       .  T
C1735      C1736   1.204       .  T
C1737      C1738   1.207       .  T
C1739      C1740   1.191       .  T
C1741      C1742   1.215       .  T
C1743      C1744   1.214       .  T
C1745      C1746   1.204       .  T
C1747      C1748   1.207       .  T
C1749      C1750   1.211       .  T
C1751      C1752   1.214       .  T
C1753      C1754   1.204       .  T
C1755      C1756   1.214       .  T
C1759      C1760   1.214   1_655  T
C1761      C1762   1.204       .  T
C1763      C1764   1.214       .  T
C1765      C1766   1.211       .  T
C1767      C1768   1.215       .  T
C1769      C1770   1.191       .  T
C1771      C1772   1.204       .  T
C1773      C1774   1.214   1_455  T
C1775      C1776   1.207       .  T
C1777      C1778   1.214       .  T
C1779      C1780   1.191       .  T
C1781      C1782   1.204       .  T
C1783      C1784   1.214       .  T
C1787      C1788   1.207       .  T
C1789      C1790   1.211       .  T
C1791      C1792   1.215       .  T
