geometry optimzed in LAMMPS
_audit_creation_date              2020-12-01 
_audit_creation_method            'lammps2cif' 
_symmetry_space_group_name_H-M    'P1' 
_symmetry_Int_Tables_number       1 
_symmetry_cell_setting            triclinic 
loop_ 
_symmetry_equiv_pos_as_xyz 
  x,y,z 
_cell_length_a                    32.67527675 
_cell_length_b                    43.207776767029586 
_cell_length_c                    41.16211015154723 
_cell_angle_alpha                 89.6000611064733 
_cell_angle_beta                  89.71728668227134 
_cell_angle_gamma                 89.89659504780572 
loop_ 
_atom_site_label 
_atom_site_type_symbol 
_atom_site_fract_x 
_atom_site_fract_y 
_atom_site_fract_z 
_atom_site_charge 
O1          O  0.61789666  0.23457648  0.58262923    -0.86200
O2          O  0.68538985  0.20433067  0.55983800    -0.83300
C3          C  0.72084451  0.19296692  0.55904115     0.97300
O4          O  0.74229930  0.19250818  0.58431496    -0.83300
O5          O  0.75554605  0.25085481  0.61293668    -0.85900
C6          C  0.74754860  0.27476816  0.62944487     1.01800
O7          O  0.71514894  0.27599635  0.64593705    -0.78700
O8          O  0.65276665  0.27314340  0.60170987    -0.78900
C9          C  0.63201696  0.26161974  0.57888936     1.01700
O10         O  0.61170423  0.18894607  0.63445687    -0.86200
O11         O  0.67687195  0.15710564  0.60724511    -0.83300
C12         C  0.70304675  0.14793231  0.62768819     0.97300
O13         O  0.72194738  0.16715021  0.64509583    -0.83300
O14         O  0.73965365  0.22286146  0.67418269    -0.85900
C15         C  0.71441295  0.22903839  0.69642505     1.01700
O16         O  0.67708628  0.23496045  0.68941934    -0.78700
O17         O  0.60527230  0.23715258  0.64857372    -0.78900
C18         C  0.59041637  0.21020582  0.64680589     1.01700
Cr19       Cr  0.65041069  0.19805270  0.59851322     1.93700
Cr20       Cr  0.73546146  0.20943235  0.62861705     1.93200
Cr21       Cr  0.66340351  0.25254986  0.64485453     1.39100
O22         O  0.68313470  0.21966452  0.62435047    -1.24000
O23         O  0.86984578  0.04767827  0.41604541    -0.86200
O24         O  0.79207130  0.03328345  0.39817054    -0.83300
C25         C  0.75631799  0.03459135  0.38736750     0.97300
O26         O  0.74140382  0.06048539  0.37988138    -0.83300
O27         O  0.75493993  0.10288113  0.43200075    -0.85900
C28         C  0.77343585  0.12281214  0.44894676     1.01800
O29         O  0.80693740  0.13452080  0.43955392    -0.78700
O30         O  0.86302317  0.09042038  0.44402030    -0.78900
C31         C  0.87237672  0.06228267  0.44273003     1.01700
O32         O  0.88326643  0.07358545  0.35115018    -0.86200
O33         O  0.80288258  0.05954464  0.33376773    -0.83300
C34         C  0.78102935  0.08101517  0.32121296     0.97300
O35         O  0.77187068  0.10495836  0.33708334    -0.83300
O36         O  0.77313647  0.14884853  0.38567290    -0.85900
C37         C  0.80390534  0.16584581  0.38076862     1.01700
O38         O  0.83892856  0.15379906  0.37795893    -0.78700
O39         O  0.90146629  0.10934252  0.38556186    -0.78900
C40         C  0.90993050  0.09157229  0.36229852     1.01700
Cr41       Cr  0.83575998  0.05670296  0.37576212     1.93700
Cr42       Cr  0.76484223  0.10328418  0.38429768     1.93200
Cr43       Cr  0.85016957  0.11977923  0.40950079     1.39100
O44         O  0.81744209  0.09316340  0.38952491    -1.24000
O45         O  0.37734085  0.24130050  0.59074030    -0.86200
O46         O  0.30133891  0.25713877  0.61148887    -0.83300
C47         C  0.26416374  0.25526235  0.61870720     0.97300
O48         O  0.24782173  0.22904069  0.62206897    -0.83300
O49         O  0.26510925  0.18654202  0.57011947    -0.85900
C50         C  0.28309562  0.16524871  0.55455555     1.01800
O51         O  0.31525382  0.15316421  0.56526409    -0.78700
O52         O  0.36594214  0.20117585  0.55950359    -0.78900
C53         C  0.37678511  0.22884232  0.56254183     1.01700
O54         O  0.38987335  0.21068957  0.65495468    -0.86200
O55         O  0.30991170  0.22604288  0.67398137    -0.83300
C56         C  0.28523678  0.20511310  0.68436330     0.97300
O57         O  0.27361224  0.18378222  0.66587328    -0.83300
O58         O  0.28181593  0.14047310  0.61875708    -0.85900
C59         C  0.31294946  0.12401879  0.62521671     1.01700
O60         O  0.34847206  0.13574329  0.62496638    -0.78700
O61         O  0.40935737  0.18150641  0.61489293    -0.78900
C62         C  0.41727558  0.19518168  0.64090981     1.01700
Cr63       Cr  0.34336279  0.23072969  0.63164681     1.93700
Cr64       Cr  0.27150428  0.18600935  0.61841252     1.93200
Cr65       Cr  0.35733211  0.17023331  0.59354693     1.39100
O66         O  0.32425138  0.19574416  0.61521060    -1.24000
O67         O  0.13683015  0.06944270  0.44172453    -0.86200
O68         O  0.18907962  0.11704443  0.43421982    -0.83300
C69         C  0.22300583  0.10560874  0.44200929     0.97300
O70         O  0.23923778  0.08437041  0.42539624    -0.83300
O71         O  0.25107326  0.04209885  0.37387519    -0.85900
C72         C  0.23560945  0.01597118  0.37954630     1.01800
O73         O  0.19872038  0.01378504  0.38782242    -0.78700
O74         O  0.12328153  0.02960682  0.41070146    -0.78900
C75         C  0.12574029  0.04168645  0.43891554     1.01700
O76         O  0.09144668  0.09067278  0.38736999    -0.86200
O77         O  0.15189551  0.13588726  0.37633110    -0.83300
C78         C  0.18751804  0.14725610  0.37411575     0.97300
O79         O  0.21871077  0.13042818  0.37850772    -0.83300
O80         O  0.22146725  0.08725472  0.33110215    -0.85900
C81         C  0.21150515  0.06416895  0.31455252     1.01700
O82         O  0.18677377  0.04385670  0.32593056    -0.78700
O83         O  0.10746056  0.06012322  0.34720100    -0.78900
C84         C  0.08185808  0.07707331  0.36163466     1.01700
Cr85       Cr  0.14452171  0.10083454  0.40755341     1.93700
Cr86       Cr  0.22808559  0.08499901  0.37809696     1.93200
Cr87       Cr  0.15532021  0.04002952  0.36898418     1.39100
O88         O  0.17568566  0.07520791  0.38434228    -1.24000
O89         O  0.13895858  0.44944826  0.56395392    -0.86200
O90         O  0.19040052  0.40109845  0.57177727    -0.83300
C91         C  0.22142267  0.41338880  0.55927071     0.97300
O92         O  0.24014243  0.43488979  0.57363951    -0.83300
O93         O  0.25935461  0.47945539  0.62206733    -0.85900
C94         C  0.24329325  0.50556917  0.61762876     1.01800
O95         O  0.20589656  0.50774038  0.61158766    -0.78700
O96         O  0.12955456  0.49125734  0.59319895    -0.78900
C97         C  0.12944388  0.47770995  0.56565162     1.01700
O98         O  0.09773453  0.43256446  0.62210781    -0.86200
O99         O  0.15892478  0.38697538  0.63314449    -0.83300
C100        C  0.19453799  0.37518666  0.63332128     0.97300
O101        O  0.22539762  0.39138361  0.62551445    -0.83300
O102        O  0.23556488  0.43781974  0.66968835    -0.85900
C103        C  0.22342242  0.46037862  0.68653781     1.01700
O104        O  0.19751567  0.47988702  0.67542139    -0.78700
O105        O  0.11787964  0.46473168  0.65920003    -0.78900
C106        C  0.09035171  0.44839017  0.64692977     1.01700
Cr107      Cr  0.14897826  0.41999454  0.59994838     1.93700
Cr108      Cr  0.23552563  0.43677216  0.62199268     1.93200
Cr109      Cr  0.16399627  0.48265258  0.63379998     1.39100
O110        O  0.18261746  0.44654875  0.61939164    -1.24000
O111        O  0.37302209  0.28365996  0.41292023    -0.86200
O112        O  0.29748774  0.26488793  0.39153399    -0.83300
C113        C  0.26055667  0.26620855  0.38322864     0.97300
O114        O  0.24456968  0.29176414  0.37562626    -0.83300
O115        O  0.25359865  0.33627425  0.42477662    -0.85900
C116        C  0.26928475  0.35780490  0.44107092     1.01800
O117        O  0.30213758  0.37036233  0.43224298    -0.78700
O118        O  0.35539204  0.32366788  0.44245489    -0.78900
C119        C  0.36996608  0.29681575  0.44060688     1.01700
O120        O  0.38730354  0.31126844  0.34813461    -0.86200
O121        O  0.30888690  0.29184565  0.32811195    -0.83300
C122        C  0.28412609  0.31124886  0.31526330     0.97300
O123        O  0.27337378  0.33518748  0.33036642    -0.83300
O124        O  0.27402770  0.38107140  0.37561867    -0.85900
C125        C  0.30524590  0.39790745  0.37104503     1.01700
O126        O  0.34086066  0.38668745  0.37378438    -0.78700
O127        O  0.40196228  0.34277116  0.38762206    -0.78900
C128        C  0.41253080  0.32846463  0.36240471     1.01700
Cr129      Cr  0.34021113  0.29105545  0.37108961     1.93700
Cr130      Cr  0.26579048  0.33525537  0.37747809     1.93200
Cr131      Cr  0.34797623  0.35341850  0.40679070     1.39100
O132        O  0.31824683  0.32648129  0.38456210    -1.24000
O133        O  0.88238630  0.51123070  0.59353104    -0.86200
O134        O  0.80613738  0.52624006  0.61373361    -0.83300
C135        C  0.76897074  0.52392673  0.62071320     0.97300
O136        O  0.75373429  0.49790304  0.62767569    -0.83300
O137        O  0.76642771  0.45750639  0.57438960    -0.85900
C138        C  0.78374040  0.43770938  0.55646989     1.01800
O139        O  0.81696800  0.42533827  0.56480034    -0.78700
O140        O  0.86788153  0.47342278  0.56003229    -0.78900
C141        C  0.87961223  0.50064571  0.56464587     1.01700
O142        O  0.89388654  0.47853970  0.65649492    -0.86200
O143        O  0.81463239  0.49545971  0.67646515    -0.83300
C144        C  0.79236196  0.47334346  0.68749658     0.97300
O145        O  0.78353853  0.45102417  0.66923173    -0.83300
O146        O  0.78767257  0.40923457  0.61980980    -0.85900
C147        C  0.81980593  0.39332370  0.62436855     1.01700
O148        O  0.85474853  0.40563351  0.62276503    -0.78700
O149        O  0.91329576  0.45184317  0.61418268    -0.78900
C150        C  0.92068698  0.46310363  0.64165121     1.01700
Cr151      Cr  0.84812085  0.49996795  0.63391630     1.93700
Cr152      Cr  0.77691224  0.45491015  0.62208022     1.93200
Cr153      Cr  0.86097618  0.44119312  0.59275470     1.39100
O154        O  0.82887302  0.46541130  0.61669915    -1.24000
O155        O  0.64135246  0.34608247  0.44639704    -0.86200
O156        O  0.69174211  0.39341523  0.43077001    -0.83300
C157        C  0.72520781  0.38235757  0.44052330     0.97300
O158        O  0.74259451  0.36052417  0.42548435    -0.83300
O159        O  0.75528419  0.31199081  0.38102870    -0.85900
C160        C  0.74227562  0.28782829  0.39466299     1.01800
O161        O  0.70586153  0.28658083  0.40428207    -0.78700
O162        O  0.62894420  0.30189267  0.42263191    -0.78900
C163        C  0.63163757  0.31792051  0.44842341     1.01700
O164        O  0.59428371  0.35714185  0.38871051    -0.86200
O165        O  0.65226175  0.40289959  0.37074609    -0.83300
C166        C  0.68730504  0.41485086  0.36664327     0.97300
O167        O  0.71909260  0.39904365  0.37239923    -0.83300
O168        O  0.72224821  0.34874402  0.33200827    -0.85900
C169        C  0.71282833  0.32285243  0.32022088     1.01700
O170        O  0.69167513  0.30327607  0.33658876    -0.78700
O171        O  0.61210713  0.32046132  0.35504167    -0.78900
C172        C  0.58545805  0.33881180  0.36601538     1.01700
Cr173      Cr  0.64700900  0.37230581  0.40716138     1.93700
Cr174      Cr  0.73047848  0.35429649  0.37872203     1.93200
Cr175      Cr  0.66085293  0.30631989  0.38001476     1.39100
O176        O  0.67890845  0.34435105  0.38785064    -1.24000
O177        O  0.85879443  0.20454729  0.95182605    -0.86200
O178        O  0.80714012  0.15685116  0.94410384    -0.83300
C179        C  0.77404794  0.16932416  0.95238517     0.97300
O180        O  0.75822152  0.19064417  0.93560528    -0.83300
O181        O  0.74837744  0.23394747  0.88504009    -0.85900
C182        C  0.76526090  0.25937201  0.89095916     1.01800
O183        O  0.80173484  0.26020381  0.90018349    -0.78700
O184        O  0.87759598  0.24250664  0.91941451    -0.78900
C185        C  0.87309269  0.23129854  0.94800611     1.01700
O186        O  0.90535497  0.18453885  0.89758938    -0.86200
O187        O  0.84552852  0.13959705  0.88607096    -0.83300
C188        C  0.80991709  0.12854293  0.88317792     0.97300
O189        O  0.77852883  0.14521300  0.88783772    -0.83300
O190        O  0.77486392  0.19018167  0.84065570    -0.85900
C191        C  0.78560501  0.21393327  0.82485342     1.01700
O192        O  0.81071029  0.23323977  0.83686820    -0.78700
O193        O  0.88818883  0.21264807  0.85559703    -0.78900
C194        C  0.91424503  0.19662515  0.87057537     1.01700
Cr195      Cr  0.85217815  0.17360782  0.91768601     1.93700
Cr196      Cr  0.76926720  0.19068819  0.88819010     1.93200
Cr197      Cr  0.84326445  0.23426999  0.87899220     1.39100
O198        O  0.82174866  0.19947015  0.89425688    -1.24000
O199        O  0.65619827  0.02022136  0.09954363    -0.86200
O200        O  0.71403781  0.01770852  0.14813734    -0.83300
C201        C  0.74715297  0.01971866  0.13249500     0.97300
O202        O  0.75492295  0.04383629  0.11605999    -0.83300
O203        O  0.74240483  0.10288424  0.08827548    -0.85900
C204        C  0.72222624  0.10149323  0.06232992     1.01800
O205        O  0.68714321  0.08998730  0.06185066    -0.78700
O206        O  0.62037711  0.05844172  0.07979817    -0.78900
C207        C  0.63704371  0.03216281  0.07588072     1.01700
O208        O  0.60240888  0.05321304  0.14334256    -0.86200
O209        O  0.66837594  0.05731767  0.18810123    -0.83300
C210        C  0.70404880  0.06493572  0.19751004     0.97300
O211        O  0.73284435  0.06911675  0.17740643    -0.83300
O212        O  0.71559955  0.12488898  0.14895948    -0.85900
C213        C  0.69917793  0.14515967  0.13111049     1.01700
O214        O  0.67415978  0.13707319  0.10926835    -0.78700
O215        O  0.60741412  0.10248137  0.13245617    -0.78900
C216        C  0.58664731  0.07993533  0.14294769     1.01700
Cr217      Cr  0.66111980  0.03960653  0.14340637     1.93700
Cr218      Cr  0.73243187  0.08413050  0.13188351     1.93200
Cr219      Cr  0.64941970  0.09543414  0.09830233     1.39100
O220        O  0.68098246  0.07343101  0.12483150    -1.24000
O221        O  0.15587250  0.25052884  0.91121620    -0.86200
O222        O  0.21440931  0.25258772  0.86063575    -0.83300
C223        C  0.24188349  0.25412280  0.88124878     0.97300
O224        O  0.25283423  0.22937949  0.89551022    -0.83300
O225        O  0.24204936  0.16876243  0.92070653    -0.85900
C226        C  0.22023585  0.16600928  0.94585072     1.01800
O227        O  0.18428650  0.17647016  0.94668710    -0.78700
O228        O  0.11865009  0.21150896  0.92751449    -0.78900
C229        C  0.13513777  0.23720605  0.93350786     1.01700
O230        O  0.10271282  0.22019032  0.86531570    -0.86200
O231        O  0.17041029  0.21601686  0.82056522    -0.83300
C232        C  0.20687028  0.20967679  0.81118932     0.97300
O233        O  0.23472969  0.20333174  0.83154699    -0.83300
O234        O  0.21894423  0.14600734  0.86028250    -0.85900
C235        C  0.19621053  0.12658222  0.87507771     1.01700
O236        O  0.17050437  0.13525185  0.89590557    -0.78700
O237        O  0.10833137  0.17071840  0.87290412    -0.78900
C238        C  0.08714689  0.19354831  0.86436431     1.01700
Cr239      Cr  0.16165414  0.23232625  0.86592520     1.93700
Cr240      Cr  0.23322048  0.18801628  0.87753964     1.93200
Cr241      Cr  0.14794321  0.17539100  0.90858296     1.39100
O242        O  0.18101333  0.19787586  0.88365207    -1.24000
O243        O  0.38946407  0.05322089  0.07767865    -0.86200
O244        O  0.32319891  0.08235127  0.05058775    -0.83300
C245        C  0.28643941  0.09060814  0.04795979     0.97300
O246        O  0.26237894  0.08919390  0.07189576    -0.83300
O247        O  0.25225729  0.03197013  0.10290132    -0.85900
C248        C  0.26037763  0.00898027  0.12086459     1.01800
O249        O  0.29045270  0.00981617  0.13955199    -0.78700
O250        O  0.35266482  0.01423206  0.09427776    -0.78900
C251        C  0.37395208  0.02709886  0.07221926     1.01700
O252        O  0.38981927  0.09928437  0.12807132    -0.86200
O253        O  0.32639510  0.12925239  0.09733369    -0.83300
C254        C  0.29698861  0.13730921  0.11524657     0.97300
O255        O  0.27644482  0.11774394  0.13142845    -0.83300
O256        O  0.26229651  0.06264430  0.16367055    -0.85900
C257        C  0.28694922  0.05732662  0.18659242     1.01700
O258        O  0.32492604  0.05251670  0.18066527    -0.78700
O259        O  0.39818632  0.05093405  0.14126436    -0.78900
C260        C  0.41186008  0.07829854  0.13997002     1.01700
Cr261      Cr  0.35466297  0.08920574  0.09067925     1.93700
Cr262      Cr  0.26770259  0.07453112  0.11726651     1.93200
Cr263      Cr  0.34089845  0.03448753  0.13726106     1.39100
O264        O  0.32087467  0.06673861  0.11552520    -1.24000
O265        O  0.38674212  0.46406661  0.93060955    -0.86200
O266        O  0.32017579  0.42979704  0.95072250    -0.83300
C267        C  0.28399046  0.41958621  0.95026832     0.97300
O268        O  0.26368803  0.41930199  0.92432898    -0.83300
O269        O  0.24614174  0.47735106  0.89614097    -0.85900
C270        C  0.25423388  0.50222892  0.88106893     1.01800
O271        O  0.28844812  0.50582776  0.86778743    -0.78700
O272        O  0.34716937  0.50198363  0.91533904    -0.78900
C273        C  0.36897386  0.48925137  0.93703854     1.01700
O274        O  0.39736312  0.42237185  0.87651466    -0.86200
O275        O  0.33405784  0.38606028  0.90225529    -0.83300
C276        C  0.30889999  0.37762378  0.88107986     0.97300
O277        O  0.29083997  0.39744873  0.86353556    -0.83300
O278        O  0.26995672  0.45316938  0.83533166    -0.85900
C279        C  0.29595602  0.46298913  0.81495735     1.01700
O280        O  0.33191033  0.47040807  0.82409615    -0.78700
O281        O  0.39950446  0.47206228  0.86728316    -0.78900
C282        C  0.41606173  0.44570214  0.86541395     1.01700
Cr283      Cr  0.35702922  0.42746755  0.91257611     1.93700
Cr284      Cr  0.27198876  0.43777731  0.88062477     1.93200
Cr285      Cr  0.34108903  0.48478511  0.87018960     1.39100
O286        O  0.32311920  0.44971138  0.88752779    -1.24000
O287        O  0.15090318  0.26516367  0.09043118    -0.86200
O288        O  0.21103740  0.25977563  0.13678812    -0.83300
C289        C  0.24025354  0.26145856  0.11700245     0.97300
O290        O  0.25055768  0.28722051  0.10484568    -0.83300
O291        O  0.23923990  0.34727855  0.08205061    -0.85900
C292        C  0.21945340  0.34703871  0.05597685     1.01800
O293        O  0.18353385  0.33638464  0.05524625    -0.78700
O294        O  0.11476914  0.30479517  0.07513112    -0.78900
C295        C  0.13079501  0.27908761  0.06848085     1.01700
O296        O  0.10056681  0.29686231  0.13907988    -0.86200
O297        O  0.16954147  0.29661324  0.18135679    -0.83300
C298        C  0.20636746  0.30181180  0.18993407     0.97300
O299        O  0.23321196  0.30910624  0.16904685    -0.83300
O300        O  0.21556770  0.36781302  0.14346059    -0.85900
C301        C  0.19623303  0.38751226  0.12642020     1.01700
O302        O  0.17140731  0.37918882  0.10499971    -0.78700
O303        O  0.10664577  0.34622785  0.12914950    -0.78900
C304        C  0.08612238  0.32396904  0.14055803     1.01700
Cr305      Cr  0.15877411  0.28223852  0.13561067     1.93700
Cr306      Cr  0.23056984  0.32684363  0.12452790     1.93200
Cr307      Cr  0.14641528  0.33978270  0.09330433     1.39100
O308        O  0.17856134  0.31680428  0.11836470    -1.24000
O309        O  0.62820322  0.48806630  0.91676338    -0.86200
O310        O  0.70253952  0.50665877  0.89696398    -0.83300
C311        C  0.73885040  0.50699351  0.88731306     0.97300
O312        O  0.75550461  0.48253200  0.87747891    -0.83300
O313        O  0.74592706  0.43563820  0.92555381    -0.85900
C314        C  0.72974774  0.41361026  0.94145943     1.01800
O315        O  0.69838509  0.40028610  0.93099406    -0.78700
O316        O  0.64507924  0.44619978  0.94396661    -0.78900
C317        C  0.63323573  0.47399297  0.94390865     1.01700
O318        O  0.61467433  0.46364449  0.85017286    -0.86200
O319        O  0.69201391  0.48468807  0.83051330    -0.83300
C320        C  0.71482996  0.46495411  0.81599654     0.97300
O321        O  0.72741366  0.44111859  0.83074462    -0.83300
O322        O  0.72682141  0.39369295  0.87449898    -0.85900
C323        C  0.69606869  0.37687693  0.86874198     1.01700
O324        O  0.66025003  0.38768983  0.87151032    -0.78700
O325        O  0.59859472  0.43007667  0.88801180    -0.78900
C326        C  0.58899943  0.44581871  0.86338523     1.01700
Cr327      Cr  0.66069424  0.48281323  0.87421229     1.93700
Cr328      Cr  0.73481333  0.43892753  0.87801308     1.93200
Cr329      Cr  0.65250552  0.41852714  0.90653383     1.39100
O330        O  0.68231344  0.44678587  0.88558781    -1.24000
O331        O  0.85486116  0.32949640  0.06490173    -0.86200
O332        O  0.80506806  0.37825827  0.07704295    -0.83300
C333        C  0.77426806  0.36513997  0.06565427     0.97300
O334        O  0.75757872  0.34311781  0.08118775    -0.83300
O335        O  0.74552599  0.29571762  0.12935488    -0.85900
C336        C  0.76340339  0.27052663  0.12264508     1.01800
O337        O  0.80073809  0.27064895  0.11549202    -0.78700
O338        O  0.87484152  0.29007613  0.09480768    -0.78900
C339        C  0.86947461  0.30263964  0.06685530     1.01700
O340        O  0.90384309  0.34557175  0.11826584    -0.86200
O341        O  0.84453480  0.38960607  0.13547292    -0.83300
C342        C  0.80941476  0.40157419  0.13857225     0.97300
O343        O  0.77714173  0.38587472  0.13333975    -0.83300
O344        O  0.77112270  0.33781530  0.17662207    -0.85900
C345        C  0.78496759  0.31516871  0.19260546     1.01700
O346        O  0.81038975  0.29613985  0.18000651    -0.78700
O347        O  0.88758826  0.31716826  0.16011243    -0.78900
C348        C  0.91357850  0.33306765  0.14473685     1.01700
Cr349      Cr  0.84995652  0.35840313  0.10106947     1.93700
Cr350      Cr  0.76686217  0.33994502  0.12922893     1.93200
Cr351      Cr  0.84184025  0.29639964  0.13683108     1.39100
O352        O  0.81957966  0.33150021  0.12322220    -1.24000
C353        C  0.74375617  0.36966721  0.97781842    -0.10000
C354        C  0.74591865  0.40182419  0.97218732     0.14200
C355        C  0.75567846  0.42165101  0.99779227    -0.03800
C356        C  0.76242329  0.40912561  0.02861925    -0.08200
C357        C  0.75967438  0.37696632  0.03437899     0.05300
C358        C  0.75061707  0.35712928  0.00859312    -0.03300
Br359      Br  0.74980660  0.31290773  0.01346706    -0.03000
H360        H  0.73603479  0.35420385  0.95814860     0.09200
H361        H  0.77015666  0.42460856  0.04825652     0.07200
Br362      Br  0.75757439  0.46582133  0.99242555    -0.03400
C363        C  0.97639209  0.30826174  0.16722548    -0.10000
C364        C  0.95701445  0.33472358  0.15468275     0.06200
C365        C  0.98135891  0.36027883  0.14539367    -0.03800
C366        C  0.02388428  0.35721532  0.14360777    -0.08200
C367        C  0.04317273  0.32912005  0.15170081     0.05300
C368        C  0.01919711  0.30546693  0.16632899    -0.03300
Br369      Br  0.04252358  0.26863714  0.18501724    -0.03000
H370        H  0.95822757  0.28881564  0.17562546     0.09200
H371        H  0.04155172  0.37639021  0.13393410     0.07200
Br372      Br  0.95799063  0.39961223  0.13357433    -0.03400
C373        C  0.52477367  0.41688538  0.85202402    -0.10000
C374        C  0.54591347  0.44522971  0.85274105     0.06200
C375        C  0.52352129  0.47292988  0.84992988    -0.03800
C376        C  0.48087759  0.47208420  0.85056704    -0.08200
C377        C  0.45947716  0.44398859  0.85429153     0.05300
C378        C  0.48179669  0.41604246  0.85199957    -0.03300
Br379      Br  0.45579376  0.37635384  0.84888044    -0.03000
H380        H  0.54173919  0.39533372  0.85306568     0.09200
H381        H  0.46466938  0.49396442  0.85095652     0.07200
Br382      Br  0.54888591  0.51297954  0.85086115    -0.03400
C383        C  0.29376578  0.38866705  0.00019616    -0.10000
C384        C  0.26673435  0.40392430  0.97909570     0.06200
C385        C  0.22418382  0.39930577  0.98295078    -0.03800
C386        C  0.20972584  0.37907266  0.00688118    -0.08200
C387        C  0.23675833  0.36353126  0.02772164     0.05300
C388        C  0.27931922  0.36855338  0.02424995    -0.03300
Br389      Br  0.31979892  0.34777876  0.05030575    -0.03000
H390        H  0.32652753  0.39132406  0.99714099     0.09200
H391        H  0.17696568  0.37643964  0.00998205     0.07200
Br392      Br  0.18381935  0.42082766  0.95755999    -0.03400
C393        C  0.33729084  0.01558351  0.02140238    -0.10000
C394        C  0.37434202  0.01516829  0.03841576     0.06200
C395        C  0.41055426  0.00801794  0.02125923    -0.03800
C396        C  0.40883714  0.00025169  0.98801375    -0.08200
C397        C  0.37041559  0.50129218  0.97097259     0.05300
C398        C  0.33579669  0.00940076  0.98805874    -0.03300
Br399      Br  0.28142425  0.49750281  0.97131670    -0.03000
H400        H  0.30925639  0.02170628  0.03399813     0.09200
H401        H  0.43668714  0.99346307  0.97556079     0.07200
Br402      Br  0.46255203  0.00775053  0.04261991    -0.03400
C403        C  0.20680276  0.43617530  0.09641634    -0.10000
C404        C  0.20601115  0.42063050  0.12670393     0.06200
C405        C  0.21575877  0.43683384  0.15493835    -0.03800
C406        C  0.22876847  0.46745562  0.15220980    -0.08200
C407        C  0.23542198  0.98069624  0.12211813     0.05300
C408        C  0.22161080  0.96604796  0.09395060    -0.03300
Br409      Br  0.22754510  0.98406553  0.05144838    -0.03000
H410        H  0.19927016  0.42397690  0.07431641     0.09200
H411        H  0.23814592  0.47930190  0.17405240     0.07200
Br412      Br  0.21184913  0.41849252  0.19741569    -0.03400
C413        C  0.31246069  0.19363896  0.11899610    -0.10000
C414        C  0.28403705  0.16974770  0.11394043     0.06200
C415        C  0.24418783  0.17717951  0.10379210    -0.03800
C416        C  0.23257305  0.20797519  0.10111746    -0.08200
C417        C  0.25959598  0.23193089  0.10882818     0.05300
C418        C  0.30026186  0.22477004  0.11698728    -0.03300
Br419      Br  0.33864306  0.25633479  0.12823085    -0.03000
H420        H  0.34367878  0.18804928  0.12560567     0.09200
H421        H  0.20117280  0.21330585  0.09505114     0.07200
Br422      Br  0.20417769  0.14646325  0.09286679    -0.03400
C423        C  0.18958395  0.07330632  0.89781115    -0.10000
C424        C  0.20154077  0.09270135  0.87157248     0.06200
C425        C  0.22102414  0.07923257  0.84472629    -0.03800
C426        C  0.23385656  0.04851055  0.84673776    -0.08200
C427        C  0.22783338  0.03068998  0.87524083     0.05300
C428        C  0.20215754  0.04237495  0.89965864    -0.03300
Br429      Br  0.18617083  0.51787176  0.93912516    -0.03000
H430        H  0.17244573  0.08259741  0.91809154     0.09200
H431        H  0.25125188  0.03910215  0.82658747     0.07200
Br432      Br  0.23146657  0.10130851  0.80502423    -0.03400
C433        C  0.30141952  0.28963362  0.89254233    -0.10000
C434        C  0.25980773  0.28531789  0.88552114     0.06200
C435        C  0.23573914  0.31168102  0.87727041    -0.03800
C436        C  0.25350458  0.34060377  0.87460952    -0.08200
C437        C  0.29497308  0.34508229  0.88068358     0.05300
C438        C  0.31906411  0.31937811  0.89047901    -0.03300
Br439      Br  0.37629981  0.32322640  0.89958449    -0.03000
H440        H  0.32046924  0.26986681  0.89844754     0.09200
H441        H  0.23403027  0.36012371  0.86853396     0.07200
Br442      Br  0.17777763  0.31120731  0.86857804    -0.03400
C443        C  0.13177509  0.22720727  0.99328627    -0.10000
C444        C  0.13196372  0.24909012  0.96761462     0.06200
C445        C  0.12888830  0.28063883  0.97574101    -0.03800
C446        C  0.12730564  0.28956429  0.00856108    -0.08200
C447        C  0.12876077  0.26766193  0.03420846     0.05300
C448        C  0.13023322  0.23610212  0.02603049    -0.03300
Br449      Br  0.12706823  0.20396164  0.05821246    -0.03000
H450        H  0.13295140  0.20272659  0.98794310     0.09200
H451        H  0.12538043  0.31401283  0.01399562     0.07200
Br452      Br  0.12353739  0.31241279  0.94344765    -0.03400
C453        C  0.27864927  0.14766995  0.97864117    -0.10000
C454        C  0.23639438  0.14727085  0.97285796     0.06200
C455        C  0.21184920  0.12518703  0.98917982    -0.03800
C456        C  0.22960277  0.10503327  0.01168490    -0.08200
C457        C  0.27165024  0.10619203  0.01837637     0.05300
C458        C  0.29642499  0.12755585  0.00119132    -0.03300
Br459      Br  0.35399100  0.13257665  0.00891202    -0.03000
H460        H  0.29800474  0.16395212  0.96563848     0.09200
H461        H  0.21016523  0.08883963  0.02473956     0.07200
Br462      Br  0.15445696  0.11995422  0.98085814    -0.03400
C463        C  0.76789773  0.21561709  0.13896012    -0.10000
C464        C  0.74336078  0.23967982  0.12665451     0.06200
C465        C  0.70220576  0.23304679  0.11919652    -0.03800
C466        C  0.68759077  0.20237269  0.12191267    -0.08200
C467        C  0.71292345  0.17807965  0.13316101     0.05300
C468        C  0.75340831  0.18543048  0.14245903    -0.03300
Br469      Br  0.79279226  0.15550516  0.15763627    -0.03000
H470        H  0.79929593  0.22024502  0.14574996     0.09200
H471        H  0.65648693  0.19740697  0.11464968     0.07200
Br472      Br  0.66552161  0.26437981  0.10364830    -0.03400
C473        C  0.81188464  0.45306543  0.11290330    -0.10000
C474        C  0.80495090  0.43520703  0.14111771     0.06200
C475        C  0.78366975  0.44820994  0.16725369    -0.03800
C476        C  0.76668206  0.47765442  0.16393041    -0.08200
C477        C  0.77617256  0.99364488  0.13621064     0.05300
C478        C  0.79945736  0.98161657  0.11034770    -0.03300
Br479      Br  0.80378094  0.00231114  0.06912941    -0.03000
H480        H  0.82787739  0.44294071  0.09243026     0.09200
H481        H  0.74883599  0.48672929  0.18395316     0.07200
Br482      Br  0.77392262  0.42541091  0.20671048    -0.03400
C483        C  0.65686372  0.97616487  0.00510441    -0.10000
C484        C  0.62734381  0.48933997  0.97676043     0.06200
C485        C  0.61671128  0.01901985  0.98491853    -0.03800
C486        C  0.61548919  0.03115202  0.01677713    -0.08200
C487        C  0.63559980  0.01649477  0.04313881     0.05300
C488        C  0.65750287  0.98892065  0.03633539    -0.03300
Br489      Br  0.69210680  0.96795153  0.06715178    -0.03000
H490        H  0.65458237  0.45040918  0.00213833     0.09200
H491        H  0.59982441  0.05293626  0.02061746     0.07200
Br492      Br  0.59212498  0.04329423  0.95103365    -0.03400
C493        C  0.47670598  0.06110060  0.16586585    -0.10000
C494        C  0.45545099  0.08412894  0.14847772     0.06200
C495        C  0.47812660  0.10923495  0.13533551    -0.03800
C496        C  0.52099709  0.10877603  0.13651234    -0.08200
C497        C  0.54229172  0.08376630  0.15049897     0.05300
C498        C  0.51949710  0.06073296  0.16710978    -0.03300
Br499      Br  0.54443751  0.02746323  0.19116822    -0.03000
H500        H  0.46004499  0.04219307  0.17717053     0.09200
H501        H  0.53772719  0.12708098  0.12422112     0.07200
Br502      Br  0.45371682  0.14345188  0.11240277    -0.03400
C503        C  0.87727073  0.28219261  0.97631664    -0.10000
C504        C  0.88173996  0.24994903  0.97771223     0.06200
C505        C  0.88836291  0.23599116  0.00857040    -0.03800
C506        C  0.88649153  0.25375185  0.03700723    -0.08200
C507        C  0.87860410  0.28570062  0.03586933     0.05300
C508        C  0.87584482  0.30008503  0.00466330    -0.03300
Br509      Br  0.86908102  0.34392867  0.99788613    -0.03000
H510        H  0.87267739  0.29351699  0.95304720     0.09200
H511        H  0.88974542  0.24214567  0.06026084     0.07200
Br512      Br  0.89997513  0.19264839  0.01399414    -0.03400
C513        C  0.70353326  0.29316673  0.89143253    -0.10000
C514        C  0.74428946  0.28814805  0.88200418     0.06200
C515        C  0.76370319  0.30965766  0.86117215    -0.03800
C516        C  0.74321522  0.33644111  0.85193643    -0.08200
C517        C  0.70465619  0.34367800  0.86496935     0.05300
C518        C  0.68380825  0.32106894  0.88364801    -0.03300
Br519      Br  0.63081502  0.32819619  0.90239889    -0.03000
H520        H  0.68787547  0.27614033  0.90638590     0.09200
H521        H  0.75950936  0.35342674  0.83731906     0.07200
Br522      Br  0.81880312  0.30489442  0.84527248    -0.03400
C523        C  0.76860839  0.08854899  0.85843269    -0.10000
C524        C  0.80228219  0.09551073  0.87791220     0.06200
C525        C  0.81828556  0.07242312  0.89878463    -0.03800
C526        C  0.79949524  0.04323700  0.90037284    -0.08200
C527        C  0.76358040  0.03758347  0.88288373     0.05300
C528        C  0.74840072  0.06048041  0.86157912    -0.03300
Br529      Br  0.69837614  0.05614718  0.83778199    -0.03000
H530        H  0.75544094  0.10629916  0.84290163     0.09200
H531        H  0.81350352  0.52354755  0.91006002     0.07200
Br532      Br  0.86121855  0.08088431  0.92906036    -0.03400
C533        C  0.97746423  0.16577834  0.86789742    -0.10000
C534        C  0.95667486  0.19290288  0.85874210     0.06200
C535        C  0.97914137  0.21762113  0.84510640    -0.03800
C536        C  0.02190413  0.21593334  0.84410314    -0.08200
C537        C  0.04298905  0.19022518  0.85707589     0.05300
C538        C  0.02008565  0.16425161  0.86763530    -0.03300
Br539      Br  0.04370372  0.12747519  0.88644492    -0.03000
H540        H  0.96047380  0.14643663  0.87804275     0.09200
H541        H  0.03877768  0.23593552  0.83542385     0.07200
Br542      Br  0.95416781  0.25593904  0.83193091    -0.03400
C543        C  0.73986737  0.12485903  0.97566855    -0.10000
C544        C  0.75330353  0.15538087  0.97977838     0.06200
C545        C  0.75823558  0.16747002  0.01099498    -0.03800
C546        C  0.74957961  0.14882977  0.03784029    -0.08200
C547        C  0.73642669  0.11817822  0.03373653     0.05300
C548        C  0.73143663  0.10613661  0.00242918    -0.03300
Br549      Br  0.71682964  0.06373747  0.99502634    -0.03000
H550        H  0.73830646  0.11501559  0.95153537     0.09200
H551        H  0.75263244  0.15841580  0.06197935     0.07200
Br552      Br  0.77904667  0.20838514  0.01794298    -0.03400
C553        C  0.77370255  0.31601625  0.28448870    -0.10000
C554        C  0.73078889  0.31496177  0.28811092     0.06200
C555        C  0.70668852  0.31002261  0.26046739    -0.03800
C556        C  0.72537664  0.30826780  0.22970472    -0.08200
C557        C  0.76817838  0.31069333  0.22590347     0.05300
C558        C  0.79245111  0.31364675  0.25380018    -0.03300
Br559      Br  0.85078836  0.31754880  0.25080446    -0.03000
H560        H  0.79269866  0.31980424  0.30559237     0.09200
H561        H  0.70621927  0.30619786  0.20841703     0.07200
Br562      Br  0.64814327  0.30850761  0.26327086    -0.03400
C563        C  0.74933710  0.44712155  0.72996449    -0.10000
C564        C  0.77319051  0.47314693  0.72109242     0.06200
C565        C  0.77454416  0.49801455  0.74346696    -0.03800
C566        C  0.75295918  0.49609142  0.77339099    -0.08200
C567        C  0.72985560  0.46969858  0.78193478     0.05300
C568        C  0.72814973  0.44527627  0.75955408    -0.03300
Br569      Br  0.69657566  0.40860010  0.76803957    -0.03000
H570        H  0.74679614  0.42763200  0.71370811     0.09200
H571        H  0.75564882  0.51479006  0.79064861     0.07200
Br572      Br  0.80582741  0.53482830  0.73541600    -0.03400
C573        C  0.75996899  0.39305697  0.52620131    -0.10000
C574        C  0.76468573  0.42532892  0.52737948     0.06200
C575        C  0.75929631  0.44316746  0.49908958    -0.03800
C576        C  0.74727463  0.42857742  0.47048259    -0.08200
C577        C  0.74304881  0.39619390  0.46938104     0.05300
C578        C  0.75027249  0.37833692  0.49731639    -0.03300
Br579      Br  0.74694948  0.33400205  0.49741245    -0.03000
H580        H  0.76521150  0.37910472  0.54777242     0.09200
H581        H  0.74191124  0.44242438  0.44884480     0.07200
Br582      Br  0.77175083  0.48652641  0.49762954    -0.03400
C583        C  0.26145968  0.28674627  0.22819105    -0.10000
C584        C  0.22145134  0.29850632  0.22384000     0.06200
C585        C  0.20124070  0.31146950  0.25069184    -0.03800
C586        C  0.22225030  0.31479891  0.28015239    -0.08200
C587        C  0.26333281  0.30501441  0.28380718     0.05300
C588        C  0.28231121  0.28971829  0.25769802    -0.03300
Br589      Br  0.33773677  0.27508454  0.25962510    -0.03000
H590        H  0.27749097  0.27638963  0.20785909     0.09200
H591        H  0.20643919  0.32566288  0.30027709     0.07200
Br592      Br  0.14641340  0.32711895  0.24780210    -0.03400
C593        C  0.52411626  0.30871170  0.34777777    -0.10000
C594        C  0.54224591  0.33749312  0.35461478     0.06200
C595        C  0.51686274  0.36393387  0.35559298    -0.03800
C596        C  0.47429972  0.36073458  0.35461049    -0.08200
C597        C  0.45589086  0.33154446  0.35177081     0.05300
C598        C  0.48125333  0.30561610  0.34608201    -0.03300
Br599      Br  0.45910556  0.26501135  0.33978525    -0.03000
H600        H  0.54302314  0.28815120  0.34624999     0.09200
H601        H  0.45534435  0.38107595  0.35801487     0.07200
Br602      Br  0.53848084  0.40504308  0.35916760    -0.03400
C603        C  0.23818780  0.47289038  0.77718743    -0.10000
C604        C  0.28048271  0.46683011  0.78103864     0.06200
C605        C  0.30416533  0.46158621  0.75296698    -0.03800
C606        C  0.28497437  0.46022253  0.72244175    -0.08200
C607        C  0.24232836  0.46457918  0.71904886     0.05300
C608        C  0.21916593  0.47182821  0.74680193    -0.03300
Br609      Br  0.16090813  0.47746016  0.74524400    -0.03000
H610        H  0.21922420  0.47753082  0.79827734     0.09200
H611        H  0.30346757  0.45524853  0.70118749     0.07200
Br612      Br  0.36196139  0.45424716  0.75503465    -0.03400
C613        C  0.97913334  0.42895024  0.65420161    -0.10000
C614        C  0.96218276  0.45879375  0.65482649     0.06200
C615        C  0.98781067  0.48422457  0.66116006    -0.03800
C616        C  0.03026587  0.47980624  0.66318838    -0.08200
C617        C  0.04754711  0.45035070  0.65846586     0.05300
C618        C  0.02141184  0.42455019  0.65625369    -0.03300
Br619      Br  0.04221490  0.38305145  0.65343859    -0.03000
H620        H  0.95964927  0.40916439  0.64980770     0.09200
H621        H  0.04991832  0.49989848  0.66477207     0.07200
Br622      Br  0.96733964  0.52587988  0.66147578    -0.03400
C623        C  0.23795146  0.36755787  0.52741063    -0.10000
C624        C  0.23536914  0.40003987  0.52888885     0.06200
C625        C  0.23852618  0.41782042  0.50041775    -0.03800
C626        C  0.24601995  0.40298626  0.47107731    -0.08200
C627        C  0.25005197  0.37059563  0.46981553     0.05300
C628        C  0.24544595  0.35273048  0.49808225    -0.03300
Br629      Br  0.25252982  0.30860872  0.49825678    -0.03000
H630        H  0.23424137  0.35369422  0.54928338     0.09200
H631        H  0.25010228  0.41683553  0.44923641     0.07200
Br632      Br  0.23113655  0.46189336  0.50017486    -0.03400
C633        C  0.20924467  0.04972480  0.25605261    -0.10000
C634        C  0.23173759  0.06031538  0.28242071     0.06200
C635        C  0.27387026  0.06721576  0.27773211    -0.03800
C636        C  0.29191253  0.06487168  0.24681450    -0.08200
C637        C  0.26879851  0.05598199  0.21993051     0.05300
C638        C  0.22696984  0.04772064  0.22509688    -0.03300
Br639      Br  0.19121891  0.03313146  0.19152607    -0.03000
H640        H  0.17729317  0.04373963  0.25935157     0.09200
H641        H  0.32386277  0.07088922  0.24365797     0.07200
Br642      Br  0.30918365  0.07892002  0.31273872    -0.03400
C643        C  0.11920823  0.47753776  0.50477622    -0.10000
C644        C  0.11986510  0.49453991  0.53411099     0.06200
C645        C  0.11565745  0.02656698  0.53015854    -0.03800
C646        C  0.11446791  0.04091021  0.49935559    -0.08200
C647        C  0.11743630  0.02400792  0.47011224     0.05300
C648        C  0.11784448  0.99136969  0.47274494    -0.03300
Br649      Br  0.11989973  0.46563705  0.43666067    -0.03000
H650        H  0.12173777  0.45254891  0.50558293     0.09200
H651        H  0.11297942  0.06594811  0.49845229     0.07200
Br652      Br  0.11362432  0.05350873  0.56703450    -0.03400
C653        C  0.26772743  0.44037659  0.34498429    -0.10000
C654        C  0.29777482  0.43135132  0.36724161     0.06200
C655        C  0.30984163  0.45242436  0.39148541    -0.03800
C656        C  0.29627598  0.98141702  0.38904056    -0.08200
C657        C  0.25928764  0.98752577  0.37297635     0.05300
C658        C  0.24744302  0.46863080  0.34804266    -0.03300
Br659      Br  0.20615031  0.47800608  0.31654697    -0.03000
H660        H  0.25795289  0.42436331  0.32642150     0.09200
H661        H  0.30829674  0.99812627  0.40599066     0.07200
Br662      Br  0.35012858  0.44186167  0.42344886    -0.03400
C663        C  0.22873556  0.18853901  0.35024253    -0.10000
C664        C  0.19556911  0.18063642  0.37028529     0.06200
C665        C  0.18150839  0.20237759  0.39329519    -0.03800
C666        C  0.20187116  0.23086817  0.39663177    -0.08200
C667        C  0.23735037  0.23729756  0.37840919     0.05300
C668        C  0.25019943  0.21596761  0.35465788    -0.03300
Br669      Br  0.29844809  0.22158303  0.32863704    -0.03000
H670        H  0.24050004  0.17182607  0.33300838     0.09200
H671        H  0.19152880  0.24713649  0.41482425     0.07200
Br672      Br  0.13867673  0.19259582  0.42366660    -0.03400
C673        C  0.26062622  0.23484914  0.73334047    -0.10000
C674        C  0.26623670  0.20629350  0.71764721     0.06200
C675        C  0.24898991  0.17956345  0.73258270    -0.03800
C676        C  0.22568991  0.18196770  0.76114791    -0.08200
C677        C  0.21998667  0.21034483  0.77663403     0.05300
C678        C  0.23858981  0.23687304  0.76280281    -0.03300
Br679      Br  0.23685071  0.27602947  0.78438408    -0.03000
H680        H  0.27343207  0.25571056  0.72276510     0.09200
H681        H  0.21390403  0.16112724  0.77248916     0.07200
Br682      Br  0.25948422  0.13833825  0.71769964    -0.03400
C683        C  0.27075883  0.08256990  0.64728095    -0.10000
C684        C  0.30546201  0.09059531  0.62919343     0.06200
C685        C  0.32290511  0.06839889  0.60816875    -0.03800
C686        C  0.30416809  0.03924618  0.60474408    -0.08200
C687        C  0.26732012  0.03254896  0.62107108     0.05300
C688        C  0.25134280  0.05437524  0.64313088    -0.03300
Br689      Br  0.20146297  0.04864542  0.66722947    -0.03000
H690        H  0.25617566  0.09961781  0.66256123     0.09200
H691        H  0.31681589  0.02269620  0.58777137     0.07200
Br692      Br  0.36836599  0.07828805  0.58036463    -0.03400
C693        C  0.20289247  0.29041244  0.61297090    -0.10000
C694        C  0.24134644  0.28401560  0.62664911     0.06200
C695        C  0.25834547  0.30571727  0.64828645    -0.03800
C696        C  0.23846797  0.33372535  0.65410642    -0.08200
C697        C  0.20236600  0.34168817  0.63781097     0.05300
C698        C  0.18371549  0.31927767  0.61789772    -0.03300
Br699      Br  0.13540113  0.32846120  0.59338008    -0.03000
H700        H  0.18913401  0.27386450  0.59670571     0.09200
H701        H  0.25341424  0.35070034  0.66924232     0.07200
Br702      Br  0.30987893  0.29960163  0.66970399    -0.03400
C703        C  0.38365764  0.27905310  0.53158918    -0.10000
C704        C  0.38590427  0.24664788  0.53177330     0.06200
C705        C  0.39102995  0.23165077  0.50128113    -0.03800
C706        C  0.38791541  0.24846698  0.47200888    -0.08200
C707        C  0.38143451  0.28056792  0.47180437     0.05300
C708        C  0.38232566  0.29602426  0.50228988    -0.03300
Br709      Br  0.38219757  0.34032788  0.50646516    -0.03000
H710        H  0.38127476  0.29133039  0.55437366     0.09200
H711        H  0.38929138  0.23606979  0.44924920     0.07200
Br712      Br  0.40268242  0.18817646  0.49718515    -0.03400
C713        C  0.24161745  0.15276670  0.47072735    -0.10000
C714        C  0.24349306  0.12022183  0.46907391     0.06200
C715        C  0.25864272  0.10302657  0.49525114    -0.03800
C716        C  0.26954117  0.11846530  0.52340328    -0.08200
C717        C  0.26645375  0.15097124  0.52554115     0.05300
C718        C  0.25340304  0.16828623  0.49865432    -0.03300
Br719      Br  0.25377523  0.21269553  0.49801061    -0.03000
H720        H  0.23045257  0.16615262  0.45020659     0.09200
H721        H  0.28064759  0.10494952  0.54384865     0.07200
Br722      Br  0.26292951  0.05871300  0.49441999    -0.03400
C723        C  0.74350892  0.04810663  0.28173777    -0.10000
C724        C  0.76148531  0.07679184  0.28918863     0.06200
C725        C  0.75551406  0.10198873  0.26779990    -0.03800
C726        C  0.73269630  0.09811008  0.23952907    -0.08200
C727        C  0.71522218  0.06944172  0.23175780     0.05300
C728        C  0.72059893  0.04428781  0.25324057    -0.03300
Br729      Br  0.69945258  0.00402978  0.24365370    -0.03000
H730        H  0.74690576  0.02867883  0.29828249     0.09200
H731        H  0.73038307  0.11729050  0.22250515     0.07200
Br732      Br  0.78046152  0.14164853  0.27453497    -0.03400
C733        C  0.79246938  0.25244076  0.36834625    -0.10000
C734        C  0.76767474  0.25955969  0.39549240     0.06200
C735        C  0.76190357  0.23700019  0.41985105    -0.03800
C736        C  0.77699653  0.20722980  0.41517138    -0.08200
C737        C  0.79809650  0.19917187  0.38658186     0.05300
C738        C  0.80770567  0.22233968  0.36377058    -0.03300
Br739      Br  0.83736568  0.21311871  0.32475709    -0.03000
H740        H  0.79729141  0.26957922  0.34938643     0.09200
H741        H  0.77036996  0.18980995  0.43343470     0.07200
Br742      Br  0.73224027  0.24501174  0.45941000    -0.03400
C743        C  0.73224000  0.45607110  0.34649817    -0.10000
C744        C  0.69424516  0.44834587  0.36038717     0.06200
C745        C  0.67232528  0.47169687  0.37698275    -0.03800
C746        C  0.69353027  0.00089168  0.38741111    -0.08200
C747        C  0.73464803  0.00580626  0.37850713     0.05300
C748        C  0.75139345  0.48402894  0.35336276    -0.03300
Br749      Br  0.80520206  0.48985820  0.33535900    -0.03000
H750        H  0.74919190  0.43885640  0.33287934     0.09200
H751        H  0.67730032  0.01837419  0.40114462     0.07200
Br752      Br  0.61837561  0.46496200  0.39399227    -0.03400
C753        C  0.87698382  0.06367663  0.50320155    -0.10000
C754        C  0.88391410  0.04700103  0.47420321     0.06200
C755        C  0.89768646  0.01613707  0.47700411    -0.03800
C756        C  0.90001272  0.50397921  0.50607245    -0.08200
C757        C  0.88791559  0.51948667  0.53474231     0.05300
C758        C  0.87936873  0.04965751  0.53389136    -0.03300
Br759      Br  0.86210264  0.07398322  0.57032272    -0.03000
H760        H  0.86683732  0.08752716  0.50219592     0.09200
H761        H  0.91032355  0.48017251  0.50755159     0.07200
Br762      Br  0.91054323  0.99089005  0.44011708    -0.03400
C763        C  0.02201508  0.11068775  0.35111067    -0.10000
C764        C  0.03914957  0.08085322  0.35028522     0.06200
C765        C  0.01288441  0.05528726  0.34644353    -0.03800
C766        C  0.97026758  0.05974153  0.34645567    -0.08200
C767        C  0.95313160  0.08933842  0.35102602     0.05300
C768        C  0.97956200  0.11510437  0.35161531    -0.03300
Br769      Br  0.95953892  0.15674104  0.35524488    -0.03000
H770        H  0.04179241  0.13059741  0.35385841     0.09200
H771        H  0.95057229  0.03960021  0.34623755     0.07200
Br772      Br  0.03305299  0.01353888  0.34672741    -0.03400
C773        C  0.70645737  0.22230361  0.75710774    -0.10000
C774        C  0.73137730  0.22923726  0.73019316     0.06200
C775        C  0.77410274  0.23382117  0.73569820    -0.03800
C776        C  0.79082062  0.22925966  0.76660443    -0.08200
C777        C  0.76638262  0.22014980  0.79279961     0.05300
C778        C  0.72352031  0.21793990  0.78816509    -0.03300
Br779      Br  0.68654207  0.21079514  0.82378347    -0.03000
H780        H  0.67379935  0.21947720  0.75390907     0.09200
H781        H  0.82344114  0.23222363  0.77004384     0.07200
Br782      Br  0.81268481  0.24670835  0.70275027    -0.03400
C783        C  0.60906631  0.26222957  0.52032190    -0.10000
C784        C  0.62628058  0.27831341  0.54678612     0.06200
C785        C  0.64125058  0.30853065  0.54054152    -0.03800
C786        C  0.64046427  0.32096219  0.50888391    -0.08200
C787        C  0.62575088  0.30416788  0.48204223     0.05300
C788        C  0.60868790  0.27467496  0.48848584    -0.03300
Br789      Br  0.58375791  0.25021714  0.45528915    -0.03000
H790        H  0.59682879  0.23920538  0.52408529     0.09200
H791        H  0.65309706  0.34387480  0.50519266     0.07200
Br792      Br  0.66459589  0.33439131  0.57342660    -0.03400
C793        C  0.79941521  0.31032925  0.60401440    -0.10000
C794        C  0.77526097  0.30191315  0.63097892     0.06200
C795        C  0.77459607  0.32177694  0.65840571    -0.03800
C796        C  0.79405136  0.35036820  0.65700743    -0.08200
C797        C  0.81466652  0.35992759  0.62904526     0.05300
C798        C  0.81902906  0.33923672  0.60288198    -0.03300
Br799      Br  0.84789333  0.35075407  0.56395932    -0.03000
H800        H  0.80076218  0.29545187  0.58296710     0.09200
H801        H  0.79050491  0.36626260  0.67710234     0.07200
Br802      Br  0.74593380  0.31305452  0.69839849    -0.03400
C803        C  0.74057489  0.06744421  0.65239712    -0.10000
C804        C  0.74690509  0.05404444  0.62171559     0.06200
C805        C  0.73655217  0.07103265  0.59372395    -0.03800
C806        C  0.72026277  0.10085064  0.59662499    -0.08200
C807        C  0.71531130  0.11486618  0.62718683     0.05300
C808        C  0.72532316  0.09774624  0.65532201    -0.03300
Br809      Br  0.71873975  0.11458244  0.69803909    -0.03000
H810        H  0.74921957  0.05476803  0.67412530     0.09200
H811        H  0.71340349  0.11378216  0.57465125     0.07200
Br812      Br  0.73919579  0.55172901  0.55275791    -0.03400
C813        C  0.52965321  0.17527811  0.64673846    -0.10000
C814        C  0.54640585  0.20416690  0.65500565     0.06200
C815        C  0.51925249  0.22745347  0.66631396    -0.03800
C816        C  0.47674152  0.22292465  0.66469228    -0.08200
C817        C  0.46034468  0.19543489  0.65232700     0.05300
C818        C  0.48729424  0.17076182  0.64540194    -0.03300
Br819      Br  0.46809210  0.13057788  0.63286626    -0.03000
H820        H  0.54945865  0.15646299  0.63929930     0.09200
H821        H  0.45651404  0.24189637  0.67092935     0.07200
Br822      Br  0.53728022  0.26651206  0.68297272    -0.03400
C823        C  0.70735116  0.17002152  0.50482770    -0.10000
C824        C  0.73514325  0.17580639  0.53013127     0.06200
C825        C  0.77400196  0.16118868  0.52925449    -0.03800
C826        C  0.78349647  0.14101904  0.50415486    -0.08200
C827        C  0.75611455  0.13576372  0.47875409     0.05300
C828        C  0.71776010  0.15055516  0.47904991    -0.03300
Br829      Br  0.68045569  0.14766150  0.44337063    -0.03000
H830        H  0.67741304  0.18085698  0.50485166     0.09200
H831        H  0.81378181  0.13072233  0.50337296     0.07200
Br832      Br  0.81732944  0.16849819  0.55980492    -0.03400
O833        O  0.61811661  0.73279322  0.58259842    -0.86200
O834        O  0.68493224  0.70203758  0.56003444    -0.83300
C835        C  0.72018514  0.69041099  0.55890575     0.97300
O836        O  0.74263896  0.69091329  0.58368043    -0.83300
O837        O  0.75627930  0.74973262  0.61259605    -0.85900
C838        C  0.74796792  0.77357106  0.62921633     1.01800
O839        O  0.71537858  0.77463670  0.64532615    -0.78700
O840        O  0.65357423  0.77157791  0.60061675    -0.78900
C841        C  0.63261690  0.75961113  0.57814210     1.01700
O842        O  0.61171517  0.68781746  0.63506672    -0.86200
O843        O  0.67636110  0.65562466  0.60810796    -0.83300
C844        C  0.70281402  0.64659244  0.62832184     0.97300
O845        O  0.72274723  0.66587105  0.64489952    -0.83300
O846        O  0.74016248  0.72166281  0.67370434    -0.85900
C847        C  0.71488622  0.72826309  0.69581806     1.01700
O848        O  0.67754122  0.73413317  0.68877524    -0.78700
O849        O  0.60583636  0.73631348  0.64790968    -0.78900
C850        C  0.59067985  0.70946423  0.64689259     1.01700
Cr851      Cr  0.65034045  0.69639328  0.59886378     1.93700
Cr852      Cr  0.73604053  0.70812684  0.62814113     1.93200
Cr853      Cr  0.66391227  0.75137573  0.64411568     1.39100
O854        O  0.68355249  0.71825155  0.62407214    -1.24000
O855        O  0.86597363  0.54847290  0.41374244    -0.86200
O856        O  0.78877166  0.53346506  0.39371473    -0.83300
C857        C  0.75318801  0.53482530  0.38253197     0.97300
O858        O  0.73809126  0.56081943  0.37551389    -0.83300
O859        O  0.74999280  0.60252761  0.42865735    -0.85900
C860        C  0.76804576  0.62213355  0.44632175     1.01800
O861        O  0.80135994  0.63451226  0.43742939    -0.78700
O862        O  0.85815585  0.59099320  0.44203883    -0.78900
C863        C  0.86824606  0.56301995  0.44059638     1.01700
O864        O  0.88034188  0.57555292  0.34905374    -0.86200
O865        O  0.80039717  0.56120719  0.33019082    -0.83300
C866        C  0.77820384  0.58264595  0.31782125     0.97300
O867        O  0.76894301  0.60639277  0.33395861    -0.83300
O868        O  0.76899241  0.64943859  0.38342305    -0.85900
C869        C  0.79997563  0.66630297  0.37875539     1.01700
O870        O  0.83477976  0.65409957  0.37591454    -0.78700
O871        O  0.89748344  0.61071349  0.38441462    -0.78900
C872        C  0.90656015  0.59350170  0.36086886     1.01700
Cr873      Cr  0.83262502  0.55779944  0.37271115     1.93700
Cr874      Cr  0.76093658  0.60379857  0.38107311     1.93200
Cr875      Cr  0.84549938  0.62039729  0.40763757     1.39100
O876        O  0.81348328  0.59380203  0.38694552    -1.24000
O877        O  0.37706433  0.74158436  0.58906178    -0.86200
O878        O  0.30015901  0.75661877  0.60949691    -0.83300
C879        C  0.26346520  0.75446882  0.61823522     0.97300
O880        O  0.24821144  0.72812936  0.62336340    -0.83300
O881        O  0.26454485  0.68608664  0.57121066    -0.85900
C882        C  0.28222668  0.66495609  0.55525632     1.01800
O883        O  0.31513181  0.65306688  0.56498356    -0.78700
O884        O  0.36650102  0.70087122  0.55847327    -0.78900
C885        C  0.37704480  0.72865531  0.56113167     1.01700
O886        O  0.39035878  0.71236654  0.65353742    -0.86200
O887        O  0.31026008  0.72711716  0.67244741    -0.83300
C888        C  0.28759790  0.70537095  0.68366005     0.97300
O889        O  0.27731868  0.68294474  0.66619586    -0.83300
O890        O  0.28333099  0.64002886  0.61902702    -0.85900
C891        C  0.31472935  0.62412291  0.62586012     1.01700
O892        O  0.34997991  0.63615297  0.62497007    -0.78700
O893        O  0.41000217  0.68184166  0.61447262    -0.78900
C894        C  0.41767595  0.69620650  0.64018439     1.01700
Cr895      Cr  0.34332913  0.73139145  0.63003942     1.93700
Cr896      Cr  0.27264260  0.68539811  0.61906826     1.93200
Cr897      Cr  0.35801961  0.67026392  0.59297639     1.39100
O898        O  0.32495908  0.69581182  0.61454931    -1.24000
O899        O  0.13394240  0.57050034  0.44289019    -0.86200
O900        O  0.18680776  0.61766497  0.43593588    -0.83300
C901        C  0.22012557  0.60533130  0.44386785     0.97300
O902        O  0.23599195  0.58417819  0.42691523    -0.83300
O903        O  0.24784724  0.54295782  0.37463075    -0.85900
C904        C  0.23233202  0.51673945  0.37945352     1.01800
O905        O  0.19511810  0.51420065  0.38658375    -0.78700
O906        O  0.12101299  0.53057310  0.41171420    -0.78900
C907        C  0.12363956  0.54257191  0.44001960     1.01700
O908        O  0.08840776  0.59287391  0.38904690    -0.86200
O909        O  0.14982164  0.63734395  0.37805617    -0.83300
C910        C  0.18570360  0.64820927  0.37572958     0.97300
O911        O  0.21647995  0.63109539  0.38058740    -0.83300
O912        O  0.21889626  0.58879716  0.33235182    -0.85900
C913        C  0.20766863  0.56660586  0.31493484     1.01700
O914        O  0.18231308  0.54645281  0.32588762    -0.78700
O915        O  0.10386261  0.56248746  0.34867954    -0.78900
C916        C  0.07856852  0.57955037  0.36323324     1.01700
Cr917      Cr  0.14194314  0.60213191  0.40903896     1.93700
Cr918      Cr  0.22520429  0.58574140  0.37947647     1.93200
Cr919      Cr  0.15181582  0.54164530  0.36942460     1.39100
O920        O  0.17270382  0.57636492  0.38545953    -1.24000
O921        O  0.13900357  0.94897983  0.56265703    -0.86200
O922        O  0.18985121  0.90014391  0.57019492    -0.83300
C923        C  0.22181626  0.91174874  0.55833434     0.97300
O924        O  0.24071879  0.93303480  0.57291987    -0.83300
O925        O  0.26031133  0.97770954  0.62137223    -0.85900
C926        C  0.24457139  0.00364866  0.61519046     1.01800
O927        O  0.20756478  0.00534602  0.60785463    -0.78700
O928        O  0.13017521  0.99083055  0.59180816    -0.78900
C929        C  0.12962570  0.97725546  0.56433328     1.01700
O930        O  0.09796520  0.93279837  0.62140380    -0.86200
O931        O  0.15782353  0.88604324  0.63163934    -0.83300
C932        C  0.19324137  0.87395293  0.63209049     0.97300
O933        O  0.22439327  0.88985489  0.62436254    -0.83300
O934        O  0.23497956  0.93601346  0.66883528    -0.85900
C935        C  0.22439448  0.95934473  0.68515040     1.01700
O936        O  0.19981351  0.97951123  0.67334062    -0.78700
O937        O  0.11908941  0.96539974  0.65793233    -0.78900
C938        C  0.09113561  0.94912672  0.64604698     1.01700
Cr939      Cr  0.14863193  0.91939557  0.59862464     1.93700
Cr940      Cr  0.23556650  0.93508000  0.62110585     1.93200
Cr941      Cr  0.16543136  0.98208540  0.63185257     1.39100
O942        O  0.18286751  0.94547252  0.61806900    -1.24000
O943        O  0.37514002  0.78235744  0.41093084    -0.86200
O944        O  0.29953986  0.76401398  0.38995882    -0.83300
C945        C  0.26236831  0.76557693  0.38245626     0.97300
O946        O  0.24639983  0.79111332  0.37506294    -0.83300
O947        O  0.25722106  0.83512896  0.42410526    -0.85900
C948        C  0.27328009  0.85659258  0.44025808     1.01800
O949        O  0.30549765  0.86950746  0.43057315    -0.78700
O950        O  0.35838950  0.82276154  0.44014609    -0.78900
C951        C  0.37228069  0.79571808  0.43852972     1.01700
O952        O  0.38947382  0.80989575  0.34594729    -0.86200
O953        O  0.31041421  0.79088581  0.32620696    -0.83300
C954        C  0.28516194  0.81016824  0.31362380     0.97300
O955        O  0.27393891  0.83385759  0.32906642    -0.83300
O956        O  0.27645278  0.87993482  0.37440098    -0.85900
C957        C  0.30746691  0.89682900  0.36914677     1.01700
O958        O  0.34317770  0.88571335  0.37159045    -0.78700
O959        O  0.40424648  0.84173229  0.38511090    -0.78900
C960        C  0.41467416  0.82735495  0.35994507     1.01700
Cr961      Cr  0.34220002  0.78993918  0.36913599     1.93700
Cr962      Cr  0.26798082  0.83424401  0.37647963     1.93200
Cr963      Cr  0.35068836  0.85244241  0.40459158     1.39100
O964        O  0.32059882  0.82547335  0.38267208    -1.24000
O965        O  0.88412000  0.01000616  0.59516256    -0.86200
O966        O  0.80810464  0.02668218  0.61413663    -0.83300
C967        C  0.77050196  0.02495198  0.61968571     0.97300
O968        O  0.75418848  0.99911467  0.62600960    -0.83300
O969        O  0.76771816  0.95753777  0.57398904    -0.85900
C970        C  0.78474726  0.93698526  0.55691558     1.01800
O971        O  0.81748201  0.92441147  0.56598689    -0.78700
O972        O  0.86890193  0.97238007  0.56161593    -0.78900
C973        C  0.88120442  0.99946500  0.56630667     1.01700
O974        O  0.89363471  0.97745855  0.65822530    -0.86200
O975        O  0.81402638  0.99578595  0.67687701    -0.83300
C976        C  0.79009938  0.97450360  0.68746565     0.97300
O977        O  0.78073484  0.95232003  0.66922035    -0.83300
O978        O  0.78642912  0.90959127  0.62077291    -0.85900
C979        C  0.81820400  0.89327087  0.62568607     1.01700
O980        O  0.85344114  0.90516387  0.62453784    -0.78700
O981        O  0.91326159  0.95066665  0.61607750    -0.78900
C982        C  0.92067450  0.96218171  0.64340582     1.01700
Cr983      Cr  0.84871612  0.99951072  0.63498784     1.93700
Cr984      Cr  0.77642306  0.95556122  0.62188269     1.93200
Cr985      Cr  0.86100594  0.94035615  0.59433772     1.39100
O986        O  0.82887303  0.96517440  0.61761453    -1.24000
O987        O  0.64168137  0.84438079  0.44650255    -0.86200
O988        O  0.69169380  0.89204478  0.43265236    -0.83300
C989        C  0.72544525  0.88101064  0.44182935     0.97300
O990        O  0.74312468  0.85974881  0.42611816    -0.83300
O991        O  0.75589066  0.81266014  0.38025973    -0.85900
C992        C  0.74315108  0.78866742  0.39435473     1.01800
O993        O  0.70683588  0.78743872  0.40405934    -0.78700
O994        O  0.62946408  0.80107618  0.42122182    -0.78900
C995        C  0.63242624  0.81611370  0.44762708     1.01700
O996        O  0.59505505  0.85674280  0.38849680    -0.86200
O997        O  0.65264426  0.90380810  0.37293868    -0.83300
C998        C  0.68782761  0.91569391  0.36925465     0.97300
O999        O  0.71941044  0.89960671  0.37461094    -0.83300
O1000       O  0.72167646  0.85090154  0.33247180    -0.85900
C1001       C  0.71459196  0.82484696  0.32003649     1.01700
O1002       O  0.69435036  0.80444847  0.33606457    -0.78700
O1003       O  0.61400953  0.82102586  0.35392591    -0.78900
C1004       C  0.58694796  0.83891271  0.36514019     1.01700
Cr1005     Cr  0.64725253  0.87177758  0.40811203     1.93700
Cr1006     Cr  0.73084090  0.85491441  0.37924753     1.93200
Cr1007     Cr  0.66224242  0.80666977  0.37920989     1.39100
O1008       O  0.67949695  0.84460591  0.38808133    -1.24000
O1009       O  0.85785982  0.70354874  0.95134895    -0.86200
O1010       O  0.80345669  0.65779744  0.94365500    -0.83300
C1011       C  0.77079693  0.67128701  0.95138725     0.97300
O1012       O  0.75597139  0.69257223  0.93404301    -0.83300
O1013       O  0.74845877  0.73504436  0.88292151    -0.85900
C1014       C  0.76554923  0.76023474  0.88934070     1.01800
O1015       O  0.80195179  0.76064030  0.89887882    -0.78700
O1016       O  0.87710300  0.74153646  0.91909026    -0.78900
C1017       C  0.87258637  0.73018290  0.94757005     1.01700
O1018       O  0.90377032  0.68179549  0.89747183    -0.86200
O1019       O  0.84164041  0.63867660  0.88578252    -0.83300
C1020       C  0.80563039  0.62840856  0.88292129     0.97300
O1021       O  0.77509910  0.64593926  0.88749080    -0.83300
O1022       O  0.77503022  0.69026632  0.83963078    -0.85900
C1023       C  0.78626241  0.71390631  0.82387717     1.01700
O1024       O  0.81151597  0.73303447  0.83601183    -0.78700
O1025       O  0.88811724  0.71131670  0.85601623    -0.78900
C1026       C  0.91358326  0.69488302  0.87120565     1.01700
Cr1027     Cr  0.84972252  0.67269554  0.91730113     1.93700
Cr1028     Cr  0.76797233  0.69156404  0.88693537     1.93200
Cr1029     Cr  0.84328274  0.73373239  0.87849341     1.39100
O1030       O  0.82059937  0.69932122  0.89364361    -1.24000
O1031       O  0.64930189  0.52193790  0.09662591    -0.86200
O1032       O  0.70728831  0.51892227  0.14526744    -0.83300
C1033       C  0.74073445  0.52058502  0.13005092     0.97300
O1034       O  0.74929982  0.54464661  0.11373525    -0.83300
O1035       O  0.73784419  0.60390824  0.08585395    -0.85900
C1036       C  0.71778537  0.60273621  0.05984674     1.01800
O1037       O  0.68277854  0.59114861  0.05919082    -0.78700
O1038       O  0.61481521  0.56062250  0.07623989    -0.78900
C1039       C  0.62982935  0.53366027  0.07295470     1.01700
O1040       O  0.59676919  0.55594996  0.14048803    -0.86200
O1041       O  0.66270907  0.55920117  0.18539337    -0.83300
C1042       C  0.69850706  0.56644880  0.19491555     0.97300
O1043       O  0.72739986  0.57016380  0.17484532    -0.83300
O1044       O  0.71092907  0.62611340  0.14639461    -0.85900
C1045       C  0.69513747  0.64649574  0.12829727     1.01700
O1046       O  0.67020917  0.63869951  0.10627102    -0.78700
O1047       O  0.60259969  0.60506325  0.12895052    -0.78900
C1048       C  0.58165837  0.58286550  0.13997061     1.01700
Cr1049     Cr  0.65498666  0.54149972  0.14054719     1.93700
Cr1050     Cr  0.72728711  0.58519104  0.12935908     1.93200
Cr1051     Cr  0.64473090  0.59726990  0.09517005     1.39100
O1052       O  0.67565499  0.57499072  0.12197159    -1.24000
O1053       O  0.15754896  0.74950853  0.90803910    -0.86200
O1054       O  0.21585313  0.75016697  0.85666940    -0.83300
C1055       C  0.24238663  0.75267310  0.87786400     0.97300
O1056       O  0.25335068  0.72831964  0.89287112    -0.83300
O1057       O  0.24323027  0.66831955  0.91949756    -0.85900
C1058       C  0.22126199  0.66625168  0.94454296     1.01800
O1059       O  0.18536603  0.67675469  0.94498713    -0.78700
O1060       O  0.11971809  0.71111015  0.92501344    -0.78900
C1061       C  0.13666468  0.73668177  0.93064032     1.01700
O1062       O  0.10422772  0.71831086  0.86296926    -0.86200
O1063       O  0.17139313  0.71275580  0.81805541    -0.83300
C1064       C  0.20774474  0.70557739  0.80903858     0.97300
O1065       O  0.23547059  0.69995782  0.82971745    -0.83300
O1066       O  0.22022262  0.64363748  0.86001065    -0.85900
C1067       C  0.19690962  0.62471132  0.87498666     1.01700
O1068       O  0.17106213  0.63398093  0.89543623    -0.78700
O1069       O  0.10799723  0.66895478  0.87223646    -0.78900
C1070       C  0.08755095  0.69202627  0.86311497     1.01700
Cr1071     Cr  0.16296856  0.73026837  0.86297496     1.93700
Cr1072     Cr  0.23419153  0.68625111  0.87597427     1.93200
Cr1073     Cr  0.14868450  0.67446077  0.90718719     1.39100
O1074       O  0.18189064  0.69611767  0.88150856    -1.24000
O1075       O  0.38738447  0.55372321  0.07817824    -0.86200
O1076       O  0.32125609  0.58104962  0.04924163    -0.83300
C1077       C  0.28488487  0.59002807  0.04615391     0.97300
O1078       O  0.26050039  0.58979244  0.06993907    -0.83300
O1079       O  0.24880707  0.53333377  0.10176557    -0.85900
C1080       C  0.25694190  0.51060928  0.12005149     1.01800
O1081       O  0.28686489  0.51164829  0.13886497    -0.78700
O1082       O  0.34993837  0.51513989  0.09431533    -0.78900
C1083       C  0.37188104  0.52772289  0.07243779     1.01700
O1084       O  0.38525486  0.60096769  0.12705097    -0.86200
O1085       O  0.32313959  0.62956379  0.09416231    -0.83300
C1086       C  0.29433774  0.63825680  0.11227310     0.97300
O1087       O  0.27372427  0.61926884  0.12914990    -0.83300
O1088       O  0.25777457  0.56469951  0.16234046    -0.85900
C1089       C  0.28209683  0.55976380  0.18561651     1.01700
O1090       O  0.32015815  0.55474838  0.18001400    -0.78700
O1091       O  0.39434903  0.55299162  0.14146109    -0.78900
C1092       C  0.40756560  0.58047833  0.13947409     1.01700
Cr1093     Cr  0.35171117  0.58960246  0.08936815     1.93700
Cr1094     Cr  0.26445705  0.57591762  0.11565301     1.93200
Cr1095     Cr  0.33725135  0.53609060  0.13700132     1.39100
O1096       O  0.31754863  0.56782777  0.11448947    -1.24000
O1097       O  0.38546969  0.96304082  0.93111463    -0.86200
O1098       O  0.31592911  0.93235126  0.95071220    -0.83300
C1099       C  0.27984916  0.92207739  0.94990469     0.97300
O1100       O  0.26027492  0.92122908  0.92366242    -0.83300
O1101       O  0.24622430  0.97932120  0.89485844    -0.85900
C1102       C  0.25555695  0.00397637  0.87987055     1.01800
O1103       O  0.29002929  0.00666155  0.86667163    -0.78700
O1104       O  0.34820151  0.00181488  0.91490287    -0.78900
C1105       C  0.36912937  0.98880598  0.93701417     1.01700
O1106       O  0.39517208  0.92022833  0.87878409    -0.86200
O1107       O  0.32900249  0.88640414  0.90376241    -0.83300
C1108       C  0.30487692  0.87794570  0.88182405     0.97300
O1109       O  0.28765313  0.89783840  0.86375514    -0.83300
O1110       O  0.26968619  0.95400330  0.83437984    -0.85900
C1111       C  0.29648234  0.96283725  0.81415680     1.01700
O1112       O  0.33259401  0.96950913  0.82364917    -0.78700
O1113       O  0.39977321  0.96957400  0.86783662    -0.78900
C1114       C  0.41554840  0.94282040  0.86782299     1.01700
Cr1115     Cr  0.35384786  0.92733983  0.91360650     1.93700
Cr1116     Cr  0.27034438  0.93902316  0.87993053     1.93200
Cr1117     Cr  0.34182131  0.98416935  0.86979079     1.39100
O1118       O  0.32187206  0.94982566  0.88731707    -1.24000
O1119       O  0.15041816  0.76458190  0.08779420    -0.86200
O1120       O  0.21163282  0.75946962  0.13315575    -0.83300
C1121       C  0.24007025  0.76191099  0.11274262     0.97300
O1122       O  0.24963692  0.78799327  0.10106348    -0.83300
O1123       O  0.23668676  0.84812063  0.07990234    -0.85900
C1124       C  0.21672622  0.84757201  0.05392296     1.01800
O1125       O  0.18115252  0.83643409  0.05331293    -0.78700
O1126       O  0.11361239  0.80402857  0.07294565    -0.78900
C1127       C  0.13016748  0.77856414  0.06594078     1.01700
O1128       O  0.10052332  0.79517336  0.13760157    -0.86200
O1129       O  0.17040578  0.79511040  0.17916867    -0.83300
C1130       C  0.20730030  0.80067346  0.18744636     0.97300
O1131       O  0.23357629  0.80821671  0.16619268    -0.83300
O1132       O  0.21357667  0.86702405  0.14207013    -0.85900
C1133       C  0.19418873  0.88697398  0.12540222     1.01700
O1134       O  0.16933247  0.87888445  0.10381775    -0.78700
O1135       O  0.10554512  0.84469079  0.12795303    -0.78900
C1136       C  0.08577897  0.82215388  0.13957711     1.01700
Cr1137     Cr  0.15886085  0.78120098  0.13318531     1.93700
Cr1138     Cr  0.22935819  0.82679241  0.12201650     1.93200
Cr1139     Cr  0.14471744  0.83916302  0.09166524     1.39100
O1140       O  0.17755787  0.81619978  0.11618289    -1.24000
O1141       O  0.63242982  0.98895333  0.91904269    -0.86200
O1142       O  0.70459201  0.00901321  0.89514334    -0.83300
C1143       C  0.74140844  0.00830317  0.88659211     0.97300
O1144       O  0.75792818  0.98338395  0.87791652    -0.83300
O1145       O  0.74982730  0.93566449  0.92504363    -0.85900
C1146       C  0.73422398  0.91335478  0.94087612     1.01800
O1147       O  0.70281083  0.90026432  0.93044297    -0.78700
O1148       O  0.65202580  0.94737013  0.94575561    -0.78900
C1149       C  0.64001473  0.97512503  0.94594458     1.01700
O1150       O  0.61446333  0.96361353  0.85328046    -0.86200
O1151       O  0.69018365  0.98531776  0.83066500    -0.83300
C1152       C  0.71421493  0.96667384  0.81596925     0.97300
O1153       O  0.72880758  0.94327075  0.83032439    -0.83300
O1154       O  0.72796032  0.89493580  0.87303590    -0.85900
C1155       C  0.69678204  0.87818763  0.86831627     1.01700
O1156       O  0.66115441  0.88899020  0.87274495    -0.78700
O1157       O  0.60101675  0.93159927  0.89291521    -0.78900
C1158       C  0.58974454  0.94603138  0.86794042     1.01700
Cr1159     Cr  0.66182581  0.98365823  0.87519436     1.93700
Cr1160     Cr  0.73699084  0.93999579  0.87760921     1.93200
Cr1161     Cr  0.65611969  0.91963270  0.90828283     1.39100
O1162       O  0.68477503  0.94791051  0.88631452    -1.24000
O1163       O  0.85580675  0.82834239  0.06441210    -0.86200
O1164       O  0.80767478  0.87769746  0.07757348    -0.83300
C1165       C  0.77636755  0.86520877  0.06623387     0.97300
O1166       O  0.75860153  0.84381974  0.08210419    -0.83300
O1167       O  0.74627141  0.79618176  0.13038317    -0.85900
C1168       C  0.76285939  0.77105237  0.12158020     1.01800
O1169       O  0.79969278  0.77113421  0.11293432    -0.78700
O1170       O  0.87527688  0.78861704  0.09395193    -0.78900
C1171       C  0.87009721  0.80138484  0.06613874     1.01700
O1172       O  0.90535107  0.84267149  0.11814469    -0.86200
O1173       O  0.84847945  0.88786151  0.13577889    -0.83300
C1174       C  0.81398928  0.90068622  0.13920712     0.97300
O1175       O  0.78101001  0.88583078  0.13410871    -0.83300
O1176       O  0.77560176  0.83781401  0.17740837    -0.85900
C1177       C  0.78807864  0.81423224  0.19260535     1.01700
O1178       O  0.81021294  0.79381283  0.17869885    -0.78700
O1179       O  0.88802474  0.81405216  0.15967919    -0.78900
C1180       C  0.91430602  0.83012194  0.14478117     1.01700
Cr1181     Cr  0.85222037  0.85692457  0.10100025     1.93700
Cr1182     Cr  0.76908070  0.84014380  0.13008320     1.93200
Cr1183     Cr  0.84186258  0.79468091  0.13563928     1.39100
O1184       O  0.82113975  0.83055435  0.12302486    -1.24000
C1185       C  0.74366815  0.86955750  0.97864599    -0.10000
C1186       C  0.75037416  0.90119028  0.97165132     0.14200
C1187       C  0.76469435  0.92063149  0.99620760    -0.03800
C1188       C  0.77038308  0.90853982  0.02736416    -0.08200
C1189       C  0.76275063  0.87705787  0.03455957     0.05300
C1190       C  0.74979474  0.85739108  0.00970951    -0.03300
Br1191     Br  0.74240245  0.81368460  0.01610392    -0.03000
H1192       H  0.73286298  0.85420438  0.95982807     0.09200
H1193       H  0.78130399  0.92387876  0.04613412     0.07200
Br1194     Br  0.77519286  0.96387004  0.98913428    -0.03400
C1195       C  0.97697438  0.80555564  0.16748451    -0.10000
C1196       C  0.95731325  0.83206389  0.15539838     0.06200
C1197       C  0.98124647  0.85795784  0.14653865    -0.03800
C1198       C  0.02369629  0.85513917  0.14434324    -0.08200
C1199       C  0.04324024  0.82696209  0.15162549     0.05300
C1200       C  0.01976314  0.80300501  0.16619448    -0.03300
Br1201     Br  0.04372480  0.76607408  0.18409698    -0.03000
H1202       H  0.95905718  0.78587192  0.17559841     0.09200
H1203       H  0.04103573  0.87454912  0.13481427     0.07200
Br1204     Br  0.95736327  0.89727388  0.13524374    -0.03400
C1205       C  0.52604860  0.91493109  0.86454654    -0.10000
C1206       C  0.54632477  0.94304505  0.85807617     0.06200
C1207       C  0.52297993  0.96871393  0.84789198    -0.03800
C1208       C  0.48024727  0.96687591  0.84807043    -0.08200
C1209       C  0.45963991  0.93989313  0.85855365     0.05300
C1210       C  0.48322132  0.91299226  0.86453714    -0.03300
Br1211     Br  0.45981607  0.87330397  0.87452268    -0.03000
H1212       H  0.54363787  0.89464858  0.87142133     0.09200
H1213       H  0.46312643  0.98764527  0.84220536     0.07200
Br1214     Br  0.54681370  0.00823195  0.83783736    -0.03400
C1215       C  0.28992187  0.89011479  0.99871231    -0.10000
C1216       C  0.26264143  0.90605996  0.97839248     0.06200
C1217       C  0.22014068  0.90116850  0.98211548    -0.03800
C1218       C  0.20594055  0.88041403  0.00563507    -0.08200
C1219       C  0.23330642  0.86434277  0.02575351     0.05300
C1220       C  0.27577132  0.86913975  0.02194115    -0.03300
Br1221     Br  0.31634989  0.84655128  0.04617076    -0.03000
H1222       H  0.32266421  0.89269667  0.99543429     0.09200
H1223       H  0.17322339  0.87767063  0.00893019     0.07200
Br1224     Br  0.17967395  0.92264682  0.95678676    -0.03400
C1225       C  0.33612235  0.50952667  0.02315823    -0.10000
C1226       C  0.37341467  0.51559632  0.03857240     0.06200
C1227       C  0.40953452  0.51529981  0.01947983    -0.03800
C1228       C  0.40800334  0.50697838  0.98637321    -0.08200
C1229       C  0.37161244  0.00127440  0.97078408     0.05300
C1230       C  0.33431606  0.50330853  0.98979798    -0.03300
Br1231     Br  0.28330237  0.01094968  0.96798652    -0.03000
H1232       H  0.30784950  0.51119985  0.03687034     0.09200
H1233       H  0.43617795  0.50548163  0.97248970     0.07200
Br1234     Br  0.46151815  0.52621487  0.03748978    -0.03400
C1235       C  0.20635147  0.93600128  0.09622172    -0.10000
C1236       C  0.20460775  0.92003910  0.12622873     0.06200
C1237       C  0.21561730  0.93543445  0.15469662    -0.03800
C1238       C  0.23114884  0.96546314  0.15242668    -0.08200
C1239       C  0.23238636  0.48227736  0.12164450     0.05300
C1240       C  0.21977726  0.46674823  0.09367845    -0.03300
Br1241     Br  0.22386177  0.48448543  0.05094697    -0.03000
H1242       H  0.19804772  0.92439679  0.07394758     0.09200
H1243       H  0.24143882  0.97656803  0.17443249     0.07200
Br1244     Br  0.20951672  0.91676339  0.19689767    -0.03400
C1245       C  0.31084758  0.69416005  0.11615933    -0.10000
C1246       C  0.28219267  0.67068385  0.11016786     0.06200
C1247       C  0.24348180  0.67844621  0.09786913    -0.03800
C1248       C  0.23281821  0.70934777  0.09428143    -0.08200
C1249       C  0.25964965  0.73292843  0.10346304     0.05300
C1250       C  0.29952806  0.72536333  0.11334632    -0.03300
Br1251     Br  0.33775007  0.75659208  0.12585088    -0.03000
H1252       H  0.34142246  0.68820621  0.12416042     0.09200
H1253       H  0.20205159  0.71505758  0.08676669     0.07200
Br1254     Br  0.20377167  0.64797761  0.08568056    -0.03400
C1255       C  0.19001180  0.57199993  0.89898272    -0.10000
C1256       C  0.20142253  0.59070604  0.87206432     0.06200
C1257       C  0.21894350  0.57635467  0.84487700    -0.03800
C1258       C  0.23038812  0.54532000  0.84702070    -0.08200
C1259       C  0.22547887  0.52822380  0.87615129     0.05300
C1260       C  0.20163126  0.54088585  0.90111639    -0.03300
Br1261     Br  0.18504442  0.01825288  0.93651851    -0.03000
H1262       H  0.17421647  0.58197771  0.91954891     0.09200
H1263       H  0.24652316  0.53519698  0.82659657     0.07200
Br1264     Br  0.22864908  0.59757653  0.80457325    -0.03400
C1265       C  0.29910393  0.78965603  0.89258602    -0.10000
C1266       C  0.25885553  0.78438235  0.88230961     0.06200
C1267       C  0.23485492  0.81025648  0.87225297    -0.03800
C1268       C  0.25173766  0.83963361  0.87092734    -0.08200
C1269       C  0.29196969  0.84507988  0.88042327     0.05300
C1270       C  0.31564321  0.81979402  0.89208856    -0.03300
Br1271     Br  0.37093722  0.82457453  0.90652138    -0.03000
H1272       H  0.31800350  0.77033897  0.90020551     0.09200
H1273       H  0.23237261  0.85873511  0.86335984     0.07200
Br1274     Br  0.17784299  0.80861505  0.86026629    -0.03400
C1275       C  0.13205853  0.72695041  0.99044507    -0.10000
C1276       C  0.13358082  0.74879763  0.96473933     0.06200
C1277       C  0.13111215  0.78038167  0.97284452    -0.03800
C1278       C  0.12862080  0.78932600  0.00572336    -0.08200
C1279       C  0.12871690  0.76738680  0.03143216     0.05300
C1280       C  0.12966348  0.73583368  0.02316831    -0.03300
Br1281     Br  0.12420290  0.70368924  0.05516549    -0.03000
H1282       H  0.13263352  0.70244853  0.98515081     0.09200
H1283       H  0.12705230  0.81377868  0.01116202     0.07200
Br1284     Br  0.12800186  0.81209291  0.94023183    -0.03400
C1285       C  0.27888869  0.64842777  0.97835389    -0.10000
C1286       C  0.23684591  0.64772919  0.97174285     0.06200
C1287       C  0.21211829  0.62509347  0.98694306    -0.03800
C1288       C  0.22950321  0.60434117  0.00891782    -0.08200
C1289       C  0.27124286  0.60570871  0.01644953     0.05300
C1290       C  0.29623628  0.62786596  0.00065019    -0.03300
Br1291     Br  0.35332000  0.63329780  0.01015643    -0.03000
H1292       H  0.29833817  0.66521563  0.96618069     0.09200
H1293       H  0.20993289  0.58766912  0.02115381     0.07200
Br1294     Br  0.15486283  0.62009016  0.97795840    -0.03400
C1295       C  0.76783963  0.71467017  0.13078249    -0.10000
C1296       C  0.74227406  0.74023253  0.12459538     0.06200
C1297       C  0.69966986  0.73498032  0.12241032    -0.03800
C1298       C  0.68422120  0.70444726  0.12438683    -0.08200
C1299       C  0.71038605  0.67896178  0.12995049     0.05300
C1300       C  0.75265815  0.68467284  0.13361179    -0.03300
Br1301     Br  0.79283790  0.65254037  0.13963619    -0.03000
H1302       H  0.80053678  0.71790067  0.13338151     0.09200
H1303       H  0.65172092  0.70059068  0.12138545     0.07200
Br1304     Br  0.66156687  0.76812753  0.11557624    -0.03400
C1305       C  0.81688438  0.95206914  0.11348154    -0.10000
C1306       C  0.81109538  0.93437292  0.14195158     0.06200
C1307       C  0.79202962  0.94780498  0.16888795    -0.03800
C1308       C  0.77524158  0.97735866  0.16602046    -0.08200
C1309       C  0.76922260  0.49420812  0.13432149     0.05300
C1310       C  0.79394984  0.48240006  0.10919732    -0.03300
Br1311     Br  0.79964314  0.50304397  0.06806711    -0.03000
H1312       H  0.83148981  0.94170397  0.09250540     0.09200
H1313       H  0.75868765  0.98671346  0.18660006     0.07200
Br1314     Br  0.78502579  0.92547142  0.20895140    -0.03400
C1315       C  0.64163078  0.47337069  0.00458876    -0.10000
C1316       C  0.63669111  0.99055524  0.97874989     0.06200
C1317       C  0.61131115  0.51945467  0.98165676    -0.03800
C1318       C  0.61030732  0.53251070  0.01318606    -0.08200
C1319       C  0.62618709  0.51684448  0.04075362     0.05300
C1320       C  0.64189115  0.48662564  0.03570537    -0.03300
Br1321     Br  0.66641700  0.46184711  0.06940166    -0.03000
H1322       H  0.67403306  0.95502236  0.00126715     0.09200
H1323       H  0.59852034  0.55580270  0.01580091     0.07200
Br1324     Br  0.59175141  0.54465334  0.94643133    -0.03400
C1325       C  0.47278631  0.56517844  0.16591610    -0.10000
C1326       C  0.45104675  0.58702024  0.14731192     0.06200
C1327       C  0.47315827  0.61144787  0.13222752    -0.03800
C1328       C  0.51599891  0.61125757  0.13280392    -0.08200
C1329       C  0.53770245  0.58722869  0.14813179     0.05300
C1330       C  0.51557608  0.56520061  0.16665844    -0.03300
Br1331     Br  0.54169594  0.53397399  0.19282108    -0.03000
H1332       H  0.45650992  0.54688702  0.17862564     0.09200
H1333       H  0.53233708  0.62877712  0.11898941     0.07200
Br1334     Br  0.44801856  0.64404237  0.10721865    -0.03400
C1335       C  0.87779819  0.78100993  0.97573199    -0.10000
C1336       C  0.88165953  0.74871234  0.97719836     0.06200
C1337       C  0.88813129  0.73469918  0.00801688    -0.03800
C1338       C  0.88650501  0.75248313  0.03639592    -0.08200
C1339       C  0.87907968  0.78448871  0.03519590     0.05300
C1340       C  0.87669000  0.79893163  0.00403784    -0.03300
Br1341     Br  0.87099215  0.84287096  0.99734847    -0.03000
H1342       H  0.87344462  0.79237248  0.95245262     0.09200
H1343       H  0.88955946  0.74085396  0.05965541     0.07200
Br1344     Br  0.89916831  0.69128047  0.01347406    -0.03400
C1345       C  0.70373467  0.79406124  0.88971987    -0.10000
C1346       C  0.74473989  0.78922086  0.88076391     0.06200
C1347       C  0.76435865  0.81092435  0.86034253    -0.03800
C1348       C  0.74392694  0.83776779  0.85118826    -0.08200
C1349       C  0.70518843  0.84494108  0.86402319     0.05300
C1350       C  0.68400327  0.82201732  0.88203800    -0.03300
Br1351     Br  0.63019884  0.82850798  0.89957687    -0.03000
H1352       H  0.68778369  0.77676948  0.90413000     0.09200
H1353       H  0.76042796  0.85483919  0.83683416     0.07200
Br1354     Br  0.81959462  0.80615001  0.84478067    -0.03400
C1355       C  0.75938417  0.58916660  0.86212118    -0.10000
C1356       C  0.79644444  0.59545990  0.87774045     0.06200
C1357       C  0.81661005  0.57130704  0.89463782    -0.03800
C1358       C  0.79847004  0.54189114  0.89654535    -0.08200
C1359       C  0.75956427  0.53684777  0.88335310     0.05300
C1360       C  0.74026980  0.56072198  0.86566517    -0.03300
Br1361     Br  0.68676775  0.55680748  0.84686687    -0.03000
H1362       H  0.74335601  0.60744029  0.84919196     0.09200
H1363       H  0.81116867  0.02577306  0.91693900     0.07200
Br1364     Br  0.86569077  0.57793768  0.91896590    -0.03400
C1365       C  0.97703535  0.66430623  0.86321039    -0.10000
C1366       C  0.95652014  0.69279540  0.86053111     0.06200
C1367       C  0.97921332  0.71974331  0.85400937    -0.03800
C1368       C  0.02168461  0.71802915  0.85146122    -0.08200
C1369       C  0.04285543  0.69003846  0.85693097     0.05300
C1370       C  0.01981960  0.66261296  0.86156856    -0.03300
Br1371     Br  0.04398695  0.62248674  0.86834971    -0.03000
H1372       H  0.95976284  0.64347239  0.86854119     0.09200
H1373       H  0.03830009  0.73947356  0.84795212     0.07200
Br1374     Br  0.95507438  0.76033716  0.85447316    -0.03400
C1375       C  0.73250520  0.62864998  0.97370130    -0.10000
C1376       C  0.74887171  0.65818659  0.97853560     0.06200
C1377       C  0.75613587  0.66895838  0.00998108    -0.03800
C1378       C  0.74748018  0.64975348  0.03635998    -0.08200
C1379       C  0.73188277  0.61986089  0.03151834     0.05300
C1380       C  0.72410298  0.60933827  0.99994891    -0.03300
Br1381     Br  0.70569338  0.56806393  0.99118503    -0.03000
H1382       H  0.72899427  0.61978832  0.94927985     0.09200
H1383       H  0.75242720  0.65834491  0.06070397     0.07200
Br1384     Br  0.77978458  0.70884354  0.01771093    -0.03400
C1385       C  0.77147305  0.83377209  0.28062368    -0.10000
C1386       C  0.73468949  0.81806756  0.28802767     0.06200
C1387       C  0.71948567  0.79696339  0.26492918    -0.03800
C1388       C  0.73925589  0.79390580  0.23453847    -0.08200
C1389       C  0.77474100  0.81096709  0.22691085     0.05300
C1390       C  0.79135055  0.83029376  0.25067802    -0.03300
Br1391     Br  0.84077451  0.85312306  0.24274372    -0.03000
H1392       H  0.78486399  0.84928529  0.29817210     0.09200
H1393       H  0.72571120  0.77931624  0.21620052     0.07200
Br1394     Br  0.67044717  0.77360403  0.27231199    -0.03400
C1395       C  0.73930676  0.95283822  0.72736008    -0.10000
C1396       C  0.76985751  0.97521587  0.72058973     0.06200
C1397       C  0.77789523  0.99738353  0.74501246    -0.03800
C1398       C  0.75726411  0.99569002  0.77528421    -0.08200
C1399       C  0.72809710  0.97248518  0.78194039     0.05300
C1400       C  0.71883756  0.95137333  0.75731974    -0.03300
Br1401     Br  0.67820322  0.91986088  0.76366713    -0.03000
H1402       H  0.73110341  0.93590063  0.70927007     0.09200
H1403       H  0.76531001  0.01183380  0.79422855     0.07200
Br1404     Br  0.81733894  0.02984063  0.73941689    -0.03400
C1405       C  0.76057590  0.89195265  0.52728988    -0.10000
C1406       C  0.76588418  0.92420865  0.52798644     0.06200
C1407       C  0.76024875  0.94183188  0.49961564    -0.03800
C1408       C  0.74844055  0.92700489  0.47116029    -0.08200
C1409       C  0.74362501  0.89468778  0.47049776     0.05300
C1410       C  0.74993918  0.87704744  0.49871507    -0.03300
Br1411     Br  0.74280486  0.83295476  0.49975969    -0.03000
H1412       H  0.76544667  0.87822700  0.54907615     0.09200
H1413       H  0.74315835  0.94067591  0.44938255     0.07200
Br1414     Br  0.77112292  0.98540941  0.49799392    -0.03400
C1415       C  0.26395155  0.78759397  0.22547152    -0.10000
C1416       C  0.22309915  0.79775942  0.22139017     0.06200
C1417       C  0.20217231  0.80921923  0.24872356    -0.03800
C1418       C  0.22302203  0.81258265  0.27834539    -0.08200
C1419       C  0.26465480  0.80414777  0.28183951     0.05300
C1420       C  0.28456731  0.79044096  0.25517263    -0.03300
Br1421     Br  0.34080671  0.77771138  0.25684074    -0.03000
H1422       H  0.28068217  0.77838284  0.20488325     0.09200
H1423       H  0.20656130  0.82228298  0.29880337     0.07200
Br1424     Br  0.14625044  0.82255498  0.24646624    -0.03400
C1425       C  0.52648801  0.80864403  0.34567454    -0.10000
C1426       C  0.54404732  0.83747325  0.35317840     0.06200
C1427       C  0.51833565  0.86370400  0.35421830    -0.03800
C1428       C  0.47587427  0.86018799  0.35248620    -0.08200
C1429       C  0.45791159  0.83086116  0.34915399     0.05300
C1430       C  0.48372590  0.80520413  0.34347120    -0.03300
Br1431     Br  0.46231273  0.76447040  0.33663869    -0.03000
H1432       H  0.54571862  0.78825664  0.34411504     0.09200
H1433       H  0.45658920  0.88034058  0.35597377     0.07200
Br1434     Br  0.53932663  0.90487835  0.35917492    -0.03400
C1435       C  0.24036977  0.97506445  0.77541079    -0.10000
C1436       C  0.28177053  0.96642900  0.77990776     0.06200
C1437       C  0.30472119  0.95800650  0.75232593    -0.03800
C1438       C  0.28554925  0.95640163  0.72174697    -0.08200
C1439       C  0.24361296  0.96358640  0.71771551     0.05300
C1440       C  0.22137770  0.97376958  0.74495499    -0.03300
Br1441     Br  0.16403006  0.98324589  0.74278040    -0.03000
H1442       H  0.22197999  0.98192677  0.79613488     0.09200
H1443       H  0.30347792  0.94904120  0.70097772     0.07200
Br1444     Br  0.36124949  0.94650886  0.75538339    -0.03400
C1445       C  0.98021404  0.92920494  0.65690057    -0.10000
C1446       C  0.96265921  0.95887320  0.65606949     0.06200
C1447       C  0.98816088  0.98489275  0.65965922    -0.03800
C1448       C  0.03079105  0.98102283  0.66091498    -0.08200
C1449       C  0.04847011  0.95148224  0.65797393     0.05300
C1450       C  0.02271419  0.92536302  0.65805160    -0.03300
Br1451     Br  0.04441584  0.88404289  0.65720950    -0.03000
H1452       H  0.96095139  0.90900082  0.65428032     0.09200
H1453       H  0.05013357  0.00135972  0.66050880     0.07200
Br1454     Br  0.96691905  0.02626911  0.65690276    -0.03400
C1455       C  0.23784298  0.86563490  0.52628925    -0.10000
C1456       C  0.23667309  0.89815562  0.52828628     0.06200
C1457       C  0.24365717  0.91628320  0.50051331    -0.03800
C1458       C  0.25246148  0.90175847  0.47128257    -0.08200
C1459       C  0.25469535  0.86931565  0.46939173     0.05300
C1460       C  0.24725324  0.85107495  0.49707677    -0.03300
Br1461     Br  0.25297606  0.80682575  0.49686749    -0.03000
H1462       H  0.23178809  0.85155770  0.54768035     0.09200
H1463       H  0.25873022  0.91590812  0.44997765     0.07200
Br1464     Br  0.23980157  0.96059740  0.50088454    -0.03400
C1465       C  0.20454051  0.55281893  0.25584796    -0.10000
C1466       C  0.22717364  0.56362020  0.28215111     0.06200
C1467       C  0.26904294  0.57121023  0.27682732    -0.03800
C1468       C  0.28675031  0.56875292  0.24575004    -0.08200
C1469       C  0.26368547  0.55922684  0.21907699     0.05300
C1470       C  0.22195361  0.55086251  0.22464535    -0.03300
Br1471     Br  0.18617037  0.53590324  0.19128642    -0.03000
H1472       H  0.17277569  0.54643191  0.25942168     0.09200
H1473       H  0.31855658  0.57506530  0.24231692     0.07200
Br1474     Br  0.30480038  0.58399159  0.31112483    -0.03400
C1475       C  0.11904492  0.97695888  0.50359948    -0.10000
C1476       C  0.11983043  0.99404949  0.53285577     0.06200
C1477       C  0.11565418  0.52704948  0.53148263    -0.03800
C1478       C  0.11391745  0.54145719  0.50071217    -0.08200
C1479       C  0.11648442  0.52466771  0.47134447     0.05300
C1480       C  0.11763218  0.49202872  0.47393413    -0.03300
Br1481     Br  0.11954309  0.96482089  0.43556634    -0.03000
H1482       H  0.12122596  0.95195393  0.50448340     0.09200
H1483       H  0.11222766  0.56648836  0.49993134     0.07200
Br1484     Br  0.11431081  0.55390303  0.56845345    -0.03400
C1485       C  0.26501184  0.93790417  0.34596544    -0.10000
C1486       C  0.29941404  0.93017770  0.36448915     0.06200
C1487       C  0.31622836  0.95275842  0.38521857    -0.03800
C1488       C  0.28949937  0.48095151  0.39454097    -0.08200
C1489       C  0.25694473  0.48859412  0.37389984     0.05300
C1490       C  0.24476539  0.96595974  0.35021322    -0.03300
Br1491     Br  0.19650808  0.97267615  0.32473882    -0.03000
H1492       H  0.25177572  0.92088081  0.32991050     0.09200
H1493       H  0.29756059  0.49635825  0.41413589     0.07200
Br1494     Br  0.36319739  0.94441837  0.41165998    -0.03400
C1495       C  0.22915635  0.68777300  0.35148275    -0.10000
C1496       C  0.19477581  0.68127432  0.37083589     0.06200
C1497       C  0.18040528  0.70408978  0.39251113    -0.03800
C1498       C  0.20184403  0.73213037  0.39548887    -0.08200
C1499       C  0.23859268  0.73696399  0.37834336     0.05300
C1500       C  0.25167102  0.71469887  0.35571641    -0.03300
Br1501     Br  0.30126185  0.71867454  0.33085927    -0.03000
H1502       H  0.24097565  0.67029738  0.33512631     0.09200
H1503       H  0.19120519  0.74933341  0.41259652     0.07200
Br1504     Br  0.13534559  0.69655261  0.42150396    -0.03400
C1505       C  0.24575561  0.73228051  0.72607508    -0.10000
C1506       C  0.26920161  0.70645632  0.71663842     0.06200
C1507       C  0.26825405  0.67968042  0.73637919    -0.03800
C1508       C  0.24501156  0.67926302  0.76497755    -0.08200
C1509       C  0.22154732  0.70491182  0.77464682     0.05300
C1510       C  0.22209802  0.73167222  0.75482205    -0.03300
Br1511     Br  0.19333935  0.76848225  0.76712999    -0.03000
H1512       H  0.24518072  0.75275539  0.71073841     0.09200
H1513       H  0.24665604  0.65910807  0.78061267     0.07200
Br1514     Br  0.29991285  0.64342337  0.72625970    -0.03400
C1515       C  0.27475209  0.58306573  0.65098044    -0.10000
C1516       C  0.30790012  0.59087478  0.63099212     0.06200
C1517       C  0.32311873  0.56875922  0.60889708    -0.03800
C1518       C  0.30302264  0.54020457  0.60559313    -0.08200
C1519       C  0.26708942  0.53398966  0.62328271     0.05300
C1520       C  0.25390004  0.55536283  0.64696594    -0.03300
Br1521     Br  0.20628488  0.54945411  0.67372493    -0.03000
H1522       H  0.26249157  0.60001078  0.66775021     0.09200
H1523       H  0.31387177  0.52377072  0.58774394     0.07200
Br1524     Br  0.36747149  0.57806201  0.57978620    -0.03400
C1525       C  0.20117977  0.78881489  0.61345205    -0.10000
C1526       C  0.24027633  0.78301657  0.62631351     0.06200
C1527       C  0.25737594  0.80499367  0.64753605    -0.03800
C1528       C  0.23728086  0.83289185  0.65331710    -0.08200
C1529       C  0.20079344  0.84048651  0.63737292     0.05300
C1530       C  0.18160873  0.81754870  0.61845287    -0.03300
Br1531     Br  0.13144059  0.82554702  0.59592122    -0.03000
H1532       H  0.18707745  0.77185699  0.59784966     0.09200
H1533       H  0.25240470  0.85012482  0.66801835     0.07200
Br1534     Br  0.30924795  0.79937774  0.66850552    -0.03400
C1535       C  0.38356249  0.77851816  0.52980741    -0.10000
C1536       C  0.38646701  0.74616937  0.53027469     0.06200
C1537       C  0.39267873  0.73099446  0.50002609    -0.03800
C1538       C  0.39014510  0.74759310  0.47054760    -0.08200
C1539       C  0.38309362  0.77964659  0.46999192     0.05300
C1540       C  0.38264428  0.79528413  0.50041890    -0.03300
Br1541     Br  0.38060638  0.83958610  0.50464784    -0.03000
H1542       H  0.38022268  0.79091399  0.55245140     0.09200
H1543       H  0.39243884  0.73507206  0.44790727     0.07200
Br1544     Br  0.40516452  0.68760051  0.49668231    -0.03400
C1545       C  0.24567566  0.65149315  0.47055530    -0.10000
C1546       C  0.24082844  0.61913679  0.47121365     0.06200
C1547       C  0.24801730  0.60240038  0.49983131    -0.03800
C1548       C  0.25972170  0.61829790  0.52755226    -0.08200
C1549       C  0.26397004  0.65071382  0.52702728     0.05300
C1550       C  0.25745725  0.66738127  0.49824556    -0.03300
Br1551     Br  0.26649069  0.71118882  0.49518714    -0.03000
H1552       H  0.23953668  0.66448221  0.44845589     0.09200
H1553       H  0.26569523  0.60532094  0.54968486     0.07200
Br1554     Br  0.23964922  0.55850118  0.50264871    -0.03400
C1555       C  0.73976343  0.54979604  0.27869699    -0.10000
C1556       C  0.75793826  0.57846859  0.28593441     0.06200
C1557       C  0.75098217  0.60372278  0.26475586    -0.03800
C1558       C  0.72732224  0.59982965  0.23685438    -0.08200
C1559       C  0.70984563  0.57110421  0.22921183     0.05300
C1560       C  0.71600455  0.54597274  0.25060359    -0.03300
Br1561     Br  0.69462703  0.50570883  0.24145315    -0.03000
H1562       H  0.74360822  0.53035428  0.29513966     0.09200
H1563       H  0.72443010  0.61904414  0.21993201     0.07200
Br1564     Br  0.77564269  0.64352689  0.27122295    -0.03400
C1565       C  0.79326887  0.75327074  0.36834960    -0.10000
C1566       C  0.76825353  0.76040611  0.39531997     0.06200
C1567       C  0.76104221  0.73759527  0.41916804    -0.03800
C1568       C  0.77421203  0.70749318  0.41375674    -0.08200
C1569       C  0.79508461  0.69950351  0.38509963     0.05300
C1570       C  0.80687995  0.72287118  0.36318261    -0.03300
Br1571     Br  0.83737709  0.71372304  0.32455556    -0.03000
H1572       H  0.79934439  0.77067290  0.34987853     0.09200
H1573       H  0.76649526  0.68989780  0.43155371     0.07200
Br1574     Br  0.73171461  0.74573626  0.45885537    -0.03400
C1575       C  0.73418798  0.95646639  0.35067922    -0.10000
C1576       C  0.69554265  0.94920343  0.36373178     0.06200
C1577       C  0.67400297  0.97260882  0.38052133    -0.03800
C1578       C  0.69111066  0.50040979  0.38312720    -0.08200
C1579       C  0.73173144  0.50598737  0.37335095     0.05300
C1580       C  0.75429962  0.98366978  0.35878477    -0.03300
Br1581     Br  0.80939705  0.98811057  0.34288283    -0.03000
H1582       H  0.75095711  0.93921649  0.33696327     0.09200
H1583       H  0.67480111  0.51769185  0.39707907     0.07200
Br1584     Br  0.61937869  0.96656414  0.39639571    -0.03400
C1585       C  0.87251515  0.56446790  0.50123383    -0.10000
C1586       C  0.88039633  0.54802198  0.47221076     0.06200
C1587       C  0.89654645  0.51786016  0.47515394    -0.03800
C1588       C  0.90102951  0.00230606  0.50786018    -0.08200
C1589       C  0.89011206  0.01819416  0.53654566     0.05300
C1590       C  0.87576336  0.55061470  0.53198530    -0.03300
Br1591     Br  0.85832519  0.57455090  0.56860280    -0.03000
H1592       H  0.86147421  0.58804160  0.50021346     0.09200
H1593       H  0.90977353  0.97813530  0.50925251     0.07200
Br1594     Br  0.91415297  0.49429625  0.43829164    -0.03400
C1595       C  0.01861314  0.61331995  0.35245646    -0.10000
C1596       C  0.03594107  0.58352911  0.35175630     0.06200
C1597       C  0.01005039  0.55793872  0.34677774    -0.03800
C1598       C  0.96747486  0.56220682  0.34580691    -0.08200
C1599       C  0.94997551  0.59166977  0.35019963     0.05300
C1600       C  0.97611247  0.61756733  0.35152282    -0.03300
Br1601     Br  0.95530213  0.65909443  0.35358645    -0.03000
H1602       H  0.03813765  0.63328450  0.35577317     0.09200
H1603       H  0.94796241  0.54198757  0.34490034     0.07200
Br1604     Br  0.03044645  0.51626428  0.34661490    -0.03400
C1605       C  0.70700929  0.72210232  0.75643944    -0.10000
C1606       C  0.73181439  0.72908016  0.72950811     0.06200
C1607       C  0.77441437  0.73425893  0.73493172    -0.03800
C1608       C  0.79131573  0.72975348  0.76577313    -0.08200
C1609       C  0.76703680  0.72034000  0.79194411     0.05300
C1610       C  0.72417008  0.71800942  0.78745109    -0.03300
Br1611     Br  0.68726926  0.71113765  0.82318634    -0.03000
H1612       H  0.67438553  0.71901588  0.75328783     0.09200
H1613       H  0.82389333  0.73300649  0.76917165     0.07200
Br1614     Br  0.81237044  0.74804499  0.70194173    -0.03400
C1615       C  0.61975257  0.75689216  0.51798333    -0.10000
C1616       C  0.62724424  0.77531176  0.54555663     0.06200
C1617       C  0.63300768  0.80736456  0.54038015    -0.03800
C1618       C  0.63228201  0.81985220  0.50869304    -0.08200
C1619       C  0.62674278  0.80128497  0.48084705     0.05300
C1620       C  0.61978254  0.76927868  0.48615948    -0.03300
Br1621     Br  0.61185867  0.74048480  0.45145341    -0.03000
H1622       H  0.61553543  0.73218164  0.52096654     0.09200
H1623       H  0.63752918  0.84446482  0.50593155     0.07200
Br1624     Br  0.64223242  0.83570802  0.57531137    -0.03400
C1625       C  0.80026210  0.80966329  0.60514275    -0.10000
C1626       C  0.77509899  0.80103130  0.63140706     0.06200
C1627       C  0.77232321  0.82123184  0.65857094    -0.03800
C1628       C  0.79074773  0.85020851  0.65741055    -0.08200
C1629       C  0.81252937  0.85984810  0.63007286     0.05300
C1630       C  0.81887640  0.83896357  0.60428880    -0.03300
Br1631     Br  0.84903057  0.85058557  0.56604784    -0.03000
H1632       H  0.80313350  0.79462019  0.58431645     0.09200
H1633       H  0.78574691  0.86621021  0.67722278     0.07200
Br1634     Br  0.74201642  0.81258654  0.69787593    -0.03400
C1635       C  0.73994142  0.56638352  0.65383788    -0.10000
C1636       C  0.74470890  0.55250625  0.62323494     0.06200
C1637       C  0.73256926  0.56876624  0.59531062    -0.03800
C1638       C  0.71677594  0.59866334  0.59807129    -0.08200
C1639       C  0.71398675  0.61339186  0.62840282     0.05300
C1640       C  0.72502356  0.59676826  0.65661271    -0.03300
Br1641     Br  0.72031148  0.61437478  0.69914244    -0.03000
H1642       H  0.74966875  0.55407829  0.67548660     0.09200
H1643       H  0.70879749  0.61112311  0.57604575     0.07200
Br1644     Br  0.74597871  0.05510054  0.55099526    -0.03400
C1645       C  0.52932611  0.67498147  0.64886214    -0.10000
C1646       C  0.54659152  0.70415371  0.65524819     0.06200
C1647       C  0.51983019  0.72842006  0.66475396    -0.03800
C1648       C  0.47730206  0.72440185  0.66284708    -0.08200
C1649       C  0.46047391  0.69644610  0.65216004     0.05300
C1650       C  0.48683148  0.67095731  0.64750220    -0.03300
Br1651     Br  0.46636582  0.63025841  0.63858357    -0.03000
H1652       H  0.54883961  0.65548762  0.64302142     0.09200
H1653       H  0.45745184  0.74401112  0.66748598     0.07200
Br1654     Br  0.53838291  0.76823344  0.67902180    -0.03400
C1655       C  0.70650098  0.67128115  0.50306392    -0.10000
C1656       C  0.73292676  0.67242747  0.52999869     0.06200
C1657       C  0.76807680  0.65310533  0.53012792    -0.03800
C1658       C  0.77610362  0.63405447  0.50369456    -0.08200
C1659       C  0.75043810  0.63374924  0.47661942     0.05300
C1660       C  0.71512243  0.65232345  0.47648253    -0.03300
Br1661     Br  0.68003573  0.65496366  0.43934552    -0.03000
H1662       H  0.67917512  0.68550240  0.50236088     0.09200
H1663       H  0.80400408  0.62054298  0.50345999     0.07200
Br1664     Br  0.80782305  0.65145848  0.56445962    -0.03400
loop_ 
_geom_bond_atom_site_label_1 
_geom_bond_atom_site_label_2 
_geom_bond_distance 
_geom_bond_site_symmetry_2 
_ccdc_geom_bond_type 
O1          Cr19   2.008       .  S
O1            C9   1.265       .  A
O2          Cr19   1.973       .  S
O2            C3   1.258       .  A
C3            O4   1.257       .  A
C3          C824   1.480       .  S
O4          Cr20   1.981       .  S
O5          Cr20   2.009       .  S
O5            C6   1.267       .  A
C6            O7   1.256       .  A
C6          C794   1.485       .  S
O7          Cr21   1.973       .  S
O8          Cr21   2.012       .  S
O8            C9   1.266       .  A
C9          C784   1.513       .  S
O10         Cr19   1.980       .  S
O10          C18   1.260       .  A
O11         Cr19   1.999       .  S
O11          C12   1.264       .  A
C12          O13   1.264       .  A
C12         C807   1.483       .  S
O13         Cr20   1.994       .  S
O14         Cr20   1.973       .  S
O14          C15   1.259       .  A
C15          O16   1.280       .  A
C15         C774   1.499       .  S
O16         Cr21   2.032       .  S
O17         Cr21   2.018       .  S
O17          C18   1.265       .  A
C18         C814   1.498       .  S
Cr19         O22   1.782       .  S
Cr20         O22   1.774       .  S
Cr21         O22   1.776       .  S
O23         Cr41   2.037       .  S
O23          C31   1.274       .  A
O24         Cr41   1.973       .  S
O24          C25   1.253       .  A
C25          O26   1.257       .  A
C25         C747   1.481       .  S
O26         Cr42   2.013       .  S
O27         Cr42   1.988       .  S
O27          C28   1.268       .  A
C28          O29   1.264       .  A
C28         C827   1.463       .  S
O29         Cr43   1.980       .  S
O30         Cr43   1.945       .  S
O30          C31   1.254       .  A
C31         C754   1.499       .  S
O32         Cr41   1.987       .  S
O32          C40   1.259       .  A
O33         Cr41   2.043       .  S
O33          C34   1.278       .  A
C34          O35   1.262       .  A
C34         C724   1.480       .  S
O35         Cr42   1.957       .  S
O36         Cr42   1.989       .  S
O36          C37   1.261       .  A
C37          O38   1.261       .  A
C37         C737   1.473       .  S
O38         Cr43   1.989       .  S
O39         Cr43   1.993       .  S
O39          C40   1.261       .  A
C40         C767   1.487       .  S
Cr41         O44   1.780       .  S
Cr42         O44   1.786       .  S
Cr43         O44   1.780       .  S
O45         Cr63   2.061       .  S
O45          C53   1.283       .  A
O46         Cr63   1.967       .  S
O46          C47   1.252       .  A
C47          O48   1.260       .  A
C47         C694   1.485       .  S
O48         Cr64   2.019       .  S
O49         Cr64   2.000       .  S
O49          C50   1.267       .  A
C50          O51   1.253       .  A
C50         C717   1.456       .  S
O51         Cr65   1.955       .  S
O52         Cr65   1.950       .  S
O52          C53   1.255       .  A
C53         C704   1.506       .  S
O54         Cr63   1.994       .  S
O54          C62   1.258       .  A
O55         Cr63   2.061       .  S
O55          C56   1.282       .  A
C56          O57   1.260       .  A
C56         C674   1.502       .  S
O57         Cr64   1.957       .  S
O58         Cr64   1.996       .  S
O58          C59   1.268       .  A
C59          O60   1.267       .  A
C59         C684   1.473       .  S
O60         Cr65   1.987       .  S
O61         Cr65   1.981       .  S
O61          C62   1.255       .  A
C62         C817   1.486       .  S
Cr63         O66   1.776       .  S
Cr64         O66   1.779       .  S
Cr65         O66   1.783       .  S
O67         Cr85   1.963       .  S
O67          C75   1.260       .  A
O68         Cr85   1.961       .  S
O68          C69   1.255       .  A
C69          O70   1.263       .  A
C69         C714   1.451       .  S
O70         Cr86   1.983       .  S
O71         Cr86   2.007       .  S
O71          C72   1.258       .  A
C72          O73   1.255       .  A
C72         C657   1.477   1_545  S
O73         Cr87   1.973       .  S
O74         Cr87   2.054       .  S
O74          C75   1.280       .  A
C75         C647   1.513       .  S
O76         Cr85   1.978       .  S
O76          C84   1.256       .  A
O77         Cr85   1.994       .  S
O77          C78   1.267       .  A
C78          O79   1.264       .  A
C78         C664   1.474       .  S
O79         Cr86   1.986       .  S
O80         Cr86   1.949       .  S
O80          C81   1.256       .  A
C81          O82   1.279       .  A
C81         C634   1.486       .  S
O82         Cr87   2.050       .  S
O83         Cr87   2.000       .  S
O83          C84   1.260       .  A
C84         C764   1.482       .  S
Cr85         O88   1.782       .  S
Cr86         O88   1.781       .  S
Cr87         O88   1.782       .  S
O89        Cr107   1.975       .  S
O89          C97   1.262       .  A
O90        Cr107   1.959       .  S
O90          C91   1.252       .  A
C91          O92   1.265       .  A
C91         C624   1.452       .  S
O92        Cr108   1.997       .  S
O93        Cr108   2.003       .  S
O93          C94   1.256       .  A
C94          O95   1.251       .  A
C94        C1519   1.475       .  S
O95        Cr109   1.966       .  S
O96        Cr109   2.051       .  S
O96          C97   1.280       .  A
C97         C644   1.517       .  S
O98        Cr107   1.980       .  S
O98         C106   1.256       .  A
O99        Cr107   1.996       .  S
O99         C100   1.269       .  A
C100        O101   1.267       .  A
C100        C697   1.480       .  S
O101       Cr108   1.994       .  S
O102       Cr108   1.964       .  S
O102        C103   1.262       .  A
C103        O104   1.278       .  A
C103        C607   1.489       .  S
O104       Cr109   2.041       .  S
O105       Cr109   1.985       .  S
O105        C106   1.255       .  A
C106        C617   1.477       .  S
Cr107       O110   1.786       .  S
Cr108       O110   1.782       .  S
Cr109       O110   1.778       .  S
O111       Cr129   2.056       .  S
O111        C119   1.280       .  A
O112       Cr129   1.979       .  S
O112        C113   1.257       .  A
C113        O114   1.259       .  A
C113        C667   1.478       .  S
O114       Cr130   2.006       .  S
O115       Cr130   1.986       .  S
O115        C116   1.262       .  A
C116        O117   1.255       .  A
C116        C627   1.449       .  S
O117       Cr131   1.967       .  S
O118       Cr131   1.960       .  S
O118        C119   1.256       .  A
C119        C707   1.508       .  S
O120       Cr129   2.001       .  S
O120        C128   1.261       .  A
O121       Cr129   2.048       .  S
O121        C122   1.278       .  A
C122        O123   1.259       .  A
C122        C587   1.492       .  S
O123       Cr130   1.954       .  S
O124       Cr130   1.999       .  S
O124        C125   1.267       .  A
C125        O126   1.265       .  A
C125        C654   1.472       .  S
O126       Cr131   1.985       .  S
O127       Cr131   1.984       .  S
O127        C128   1.258       .  A
C128        C597   1.487       .  S
Cr129       O132   1.780       .  S
Cr130       O132   1.780       .  S
Cr131       O132   1.779       .  S
O133       Cr151   2.056       .  S
O133        C141   1.281       .  A
O134       Cr151   1.963       .  S
O134        C135   1.251       .  A
C135        O136   1.261       .  A
C135       C1636   1.470       .  S
O136       Cr152   2.019       .  S
O137       Cr152   1.997       .  S
O137        C138   1.264       .  A
C138        O139   1.257       .  A
C138        C574   1.458       .  S
O139       Cr153   1.973       .  S
O140       Cr153   1.943       .  S
O140        C141   1.254       .  A
C141        C757   1.495       .  S
O142       Cr151   1.988       .  S
O142        C150   1.258       .  A
O143       Cr151   2.069       .  S
O143        C144   1.281       .  A
C144        O145   1.262       .  A
C144        C564   1.515       .  S
O145       Cr152   1.960       .  S
O146       Cr152   2.007       .  S
O146        C147   1.268       .  A
C147        O148   1.262       .  A
C147        C797   1.464       .  S
O148       Cr153   1.975       .  S
O149       Cr153   1.984       .  S
O149        C150   1.259       .  A
C150        C614   1.474       .  S
Cr151       O154   1.775       .  S
Cr152       O154   1.771       .  S
Cr153       O154   1.780       .  S
O155       Cr173   1.974       .  S
O155        C163   1.260       .  A
O156       Cr173   1.986       .  S
O156        C157   1.259       .  A
C157        O158   1.264       .  A
C157        C577   1.458       .  S
O158       Cr174   1.987       .  S
O159       Cr174   2.000       .  S
O159        C160   1.256       .  A
C160        O161   1.253       .  A
C160        C734   1.476       .  S
O161       Cr175   1.971       .  S
O162       Cr175   2.044       .  S
O162        C163   1.275       .  A
C163        C787   1.514       .  S
O164       Cr173   2.000       .  S
O164        C172   1.264       .  A
O165       Cr173   1.999       .  S
O165        C166   1.267       .  A
C166        O167   1.265       .  A
C166        C744   1.486       .  S
O167       Cr174   1.984       .  S
O168       Cr174   1.959       .  S
O168        C169   1.262       .  A
C169        O170   1.279       .  A
C169        C554   1.485       .  S
O170       Cr175   2.052       .  S
O171       Cr175   1.993       .  S
O171        C172   1.261       .  A
C172        C594   1.491       .  S
Cr173       O176   1.783       .  S
Cr174       O176   1.777       .  S
Cr175       O176   1.779       .  S
O177       Cr195   1.959       .  S
O177        C185   1.256       .  A
O178       Cr195   1.962       .  S
O178        C179   1.254       .  A
C179        O180   1.259       .  A
C179        C544   1.442       .  S
O180       Cr196   1.983       .  S
O181       Cr196   1.992       .  S
O181        C182   1.256       .  A
C182        O183   1.253       .  A
C182        C514   1.464       .  S
O183       Cr197   1.963       .  S
O184       Cr197   2.045       .  S
O184        C185   1.277       .  A
C185        C504   1.497       .  S
O186       Cr195   1.977       .  S
O186        C194   1.258       .  A
O187       Cr195   1.983       .  S
O187        C188   1.265       .  A
C188        O189   1.267       .  A
C188        C524   1.467       .  S
O189       Cr196   1.988       .  S
O190       Cr196   1.965       .  S
O190        C191   1.261       .  A
C191        O192   1.275       .  A
C191        C777   1.487       .  S
O192       Cr197   2.039       .  S
O193       Cr197   1.987       .  S
O193        C194   1.258       .  A
C194        C534   1.476       .  S
Cr195       O198   1.777       .  S
Cr196       O198   1.776       .  S
Cr197       O198   1.771       .  S
O199       Cr217   2.003       .  S
O199        C207   1.267       .  A
O200       Cr217   1.979       .  S
O200        C201   1.259       .  A
C201        O202   1.264       .  A
C201        C477   1.479   1_545  S
O202       Cr218   2.000       .  S
O203       Cr218   1.990       .  S
O203        C204   1.260       .  A
C204        O205   1.251       .  A
C204        C547   1.451       .  S
O205       Cr219   1.952       .  S
O206       Cr219   2.016       .  S
O206        C207   1.269       .  A
C207        C487   1.513       .  S
O208       Cr217   2.005       .  S
O208        C216   1.263       .  A
O209       Cr217   2.013       .  S
O209        C210   1.275       .  A
C210        O211   1.262       .  A
C210        C727   1.472       .  S
O211       Cr218   1.979       .  S
O212       Cr218   1.977       .  S
O212        C213   1.260       .  A
C213        O214   1.269       .  A
C213        C467   1.495       .  S
O214       Cr219   2.028       .  S
O215       Cr219   1.985       .  S
O215        C216   1.261       .  A
C216        C497   1.490       .  S
Cr217       O220   1.768       .  S
Cr218       O220   1.770       .  S
Cr219       O220   1.776       .  S
O221       Cr239   2.036       .  S
O221        C229   1.273       .  A
O222       Cr239   1.945       .  S
O222        C223   1.240       .  A
C223        O224   1.268       .  A
C223        C434   1.483       .  S
O224       Cr240   2.044       .  S
O225       Cr240   1.979       .  S
O225        C226   1.259       .  A
C226        O227   1.258       .  A
C226        C454   1.470       .  S
O227       Cr241   1.973       .  S
O228       Cr241   1.991       .  S
O228        C229   1.261       .  A
C229        C444   1.501       .  S
O230       Cr239   1.997       .  S
O230        C238   1.260       .  A
O231       Cr239   2.019       .  S
O231        C232   1.280       .  A
C232        O233   1.269       .  A
C232        C677   1.484       .  S
O233       Cr240   2.002       .  S
O234       Cr240   2.010       .  S
O234        C235   1.272       .  A
C235        O236   1.256       .  A
C235        C424   1.482       .  S
O236       Cr241   1.956       .  S
O237       Cr241   1.974       .  S
O237        C238   1.253       .  A
C238        C537   1.483       .  S
Cr239       O242   1.770       .  S
Cr240       O242   1.775       .  S
Cr241       O242   1.773       .  S
O243       Cr261   1.999       .  S
O243        C251   1.260       .  A
O244       Cr261   1.973       .  S
O244        C245   1.257       .  A
C245        O246   1.259       .  A
C245        C457   1.471       .  S
O246       Cr262   1.976       .  S
O247       Cr262   2.002       .  S
O247        C248   1.263       .  A
C248        O249   1.252       .  A
C248        C407   1.471   1_545  S
O249       Cr263   1.966       .  S
O250       Cr263   2.014       .  S
O250        C251   1.267       .  A
C251        C394   1.487       .  S
O252       Cr261   1.977       .  S
O252        C260   1.255       .  A
O253       Cr261   1.980       .  S
O253        C254   1.258       .  A
C254        O255   1.264       .  A
C254        C414   1.464       .  S
O255       Cr262   1.982       .  S
O256       Cr262   1.982       .  S
O256        C257   1.263       .  A
C257        O258   1.280       .  A
C257        C637   1.493       .  S
O258       Cr263   2.020       .  S
O259       Cr263   2.011       .  S
O259        C260   1.265       .  A
C260        C494   1.491       .  S
Cr261       O264   1.785       .  S
Cr262       O264   1.770       .  S
Cr263       O264   1.776       .  S
O265       Cr283   2.006       .  S
O265        C273   1.262       .  A
O266       Cr283   1.977       .  S
O266        C267   1.263       .  A
C267        O268   1.260       .  A
C267        C384   1.472       .  S
O268       Cr284   1.981       .  S
O269       Cr284   2.012       .  S
O269        C270   1.265       .  A
C270        O271   1.252       .  A
C270       C1259   1.477       .  S
O271       Cr285   1.947       .  S
O272       Cr285   2.017       .  S
O272        C273   1.267       .  A
C273        C397   1.495       .  S
O274       Cr283   1.993       .  S
O274        C282   1.261       .  A
O275       Cr283   1.991       .  S
O275        C276   1.257       .  A
C276        O277   1.264       .  A
C276        C437   1.479       .  S
O277       Cr284   1.980       .  S
O278       Cr284   1.976       .  S
O278        C279   1.263       .  A
C279        O280   1.277       .  A
C279        C604   1.495       .  S
O280       Cr285   2.024       .  S
O281       Cr285   1.989       .  S
O281        C282   1.263       .  A
C282        C377   1.490       .  S
Cr283       O286   1.791       .  S
Cr284       O286   1.774       .  S
Cr285       O286   1.771       .  S
O287       Cr305   2.023       .  S
O287        C295   1.268       .  A
O288       Cr305   1.963       .  S
O288        C289   1.254       .  A
C289        O290   1.263       .  A
C289        C417   1.463       .  S
O290       Cr306   2.006       .  S
O291       Cr306   1.973       .  S
O291        C292   1.256       .  A
C292        O293   1.262       .  A
C292        C387   1.471       .  S
O293       Cr307   1.983       .  S
O294       Cr307   1.986       .  S
O294        C295   1.258       .  A
C295        C447   1.500       .  S
O296       Cr305   2.008       .  S
O296        C304   1.264       .  A
O297       Cr305   2.020       .  S
O297        C298   1.276       .  A
C298        O299   1.264       .  A
C298        C584   1.488       .  S
O299       Cr306   1.984       .  S
O300       Cr306   1.998       .  S
O300        C301   1.269       .  A
C301        O302   1.256       .  A
C301        C404   1.467       .  S
O302       Cr307   1.954       .  S
O303       Cr307   1.982       .  S
O303        C304   1.260       .  A
C304        C367   1.491       .  S
Cr305       O308   1.771       .  S
Cr306       O308   1.775       .  S
Cr307       O308   1.774       .  S
O309       Cr327   2.057       .  S
O309        C317   1.280       .  A
O310       Cr327   1.959       .  S
O310        C311   1.249       .  A
C311        O312   1.257       .  A
C311       C1359   1.466       .  S
O312       Cr328   2.003       .  S
O313       Cr328   1.996       .  S
O313        C314   1.266       .  A
C314        O315   1.256       .  A
C314        C354   1.461       .  S
O315       Cr329   1.970       .  S
O316       Cr329   1.971       .  S
O316        C317   1.261       .  A
C317        C484   1.521       .  S
O318       Cr327   1.989       .  S
O318        C326   1.259       .  A
O319       Cr327   2.066       .  S
O319        C320   1.281       .  A
C320        O321   1.261       .  A
C320        C567   1.496       .  S
O321       Cr328   1.963       .  S
O322       Cr328   1.979       .  S
O322        C323   1.265       .  A
C323        O324   1.264       .  A
C323        C517   1.470       .  S
O324       Cr329   1.985       .  S
O325       Cr329   1.984       .  S
O325        C326   1.257       .  A
C326        C374   1.477       .  S
Cr327       O330   1.769       .  S
Cr328       O330   1.775       .  S
Cr329       O330   1.779       .  S
O331       Cr349   1.956       .  S
O331        C339   1.256       .  A
O332       Cr349   1.966       .  S
O332        C333   1.251       .  A
C333        O334   1.266       .  A
C333        C357   1.463       .  S
O334       Cr350   2.006       .  S
O335       Cr350   2.035       .  S
O335        C336   1.266       .  A
C336        O337   1.254       .  A
C336        C464   1.494       .  S
O337       Cr351   1.961       .  S
O338       Cr351   2.053       .  S
O338        C339   1.281       .  A
C339        C507   1.503       .  S
O340       Cr349   1.978       .  S
O340        C348   1.255       .  A
O341       Cr349   1.969       .  S
O341        C342   1.264       .  A
C342        O343   1.275       .  A
C342        C474   1.465       .  S
O343       Cr350   2.022       .  S
O344       Cr350   1.958       .  S
O344        C345   1.260       .  A
C345        O346   1.278       .  A
C345        C557   1.485       .  S
O346       Cr351   2.048       .  S
O347       Cr351   1.997       .  S
O347        C348   1.259       .  A
C348        C364   1.481       .  S
Cr349       O352   1.774       .  S
Cr350       O352   1.777       .  S
Cr351       O352   1.770       .  S
C353        C354   1.409       .  A
C353        C358   1.393   1_556  A
C353        H360   1.084       .  S
C354        C355   1.401       .  A
C355        C356   1.394   1_556  A
C355       Br362   1.921       .  S
C356        C357   1.411       .  A
C356        H361   1.084       .  S
C357        C358   1.402       .  A
C358       Br359   1.920       .  S
C363        C364   1.403       .  A
C363        C368   1.404   1_655  A
C363        H370   1.083       .  S
C364        C365   1.412       .  A
C365        C366   1.397   1_655  A
C365       Br372   1.922       .  S
C366        C367   1.406       .  A
C366        H371   1.083       .  S
C367        C368   1.418       .  A
C368       Br369   1.921       .  S
C373        C374   1.408       .  A
C373        C378   1.405       .  A
C373        H380   1.084       .  S
C374        C375   1.406       .  A
C375        C376   1.394       .  A
C375       Br382   1.921       .  S
C376        C377   1.409       .  A
C376        H381   1.083       .  S
C377        C378   1.413       .  A
C378       Br379   1.921       .  S
C383        C384   1.402   1_554  A
C383        C388   1.394       .  A
C383        H390   1.083   1_554  S
C384        C385   1.413       .  A
C385        C386   1.394   1_556  A
C385       Br392   1.922       .  S
C386        C387   1.402       .  A
C386        H391   1.084       .  S
C387        C388   1.414       .  A
C388       Br389   1.924       .  S
C393        C394   1.402       .  A
C393        C398   1.401   1_554  A
C393        H400   1.084       .  S
C394        C395   1.410       .  A
C395        C396   1.413   1_554  A
C395       Br402   1.917       .  S
C396       C1229   1.411       .  A
C396        H401   1.083   1_545  S
C397       C1228   1.408       .  A
C397       C1230   1.411       .  A
C398       C1229   1.411       .  A
C398      Br1231   1.908       .  S
Br399      C1230   1.909       .  S
C403        C404   1.412       .  A
C403       C1240   1.392       .  A
C403        H410   1.084       .  S
C404        C405   1.399       .  A
C405        C406   1.394       .  A
C405       Br412   1.918       .  S
C406       C1239   1.412       .  A
C406        H411   1.083       .  S
C407        C408   1.402       .  A
C407       C1238   1.413       .  A
C408       C1235   1.394       .  A
C408       Br409   1.919       .  S
C413        C414   1.407       .  A
C413        C418   1.404       .  A
C413        H420   1.083       .  S
C414        C415   1.405       .  A
C415        C416   1.387       .  A
C415       Br422   1.922       .  S
C416        C417   1.401       .  A
C416        H421   1.081       .  S
C417        C418   1.406       .  A
C418       Br419   1.915       .  S
C423        C424   1.416       .  A
C423        C428   1.399       .  A
C423        H430   1.082       .  S
C424        C425   1.402       .  A
C425        C426   1.393       .  A
C425       Br432   1.916       .  S
C426        C427   1.412       .  A
C426        H431   1.084       .  S
C427       C1102   1.478       .  S
C427        C428   1.402       .  A
C428      Br1261   1.916       .  S
Br429      C1260   1.914       .  S
C433        C434   1.404       .  A
C433        C438   1.411       .  A
C433        H440   1.083       .  S
C434        C435   1.423       .  A
C435        C436   1.382       .  A
C435       Br442   1.929       .  S
C436        C437   1.393       .  A
C436        H441   1.084       .  S
C437        C438   1.418       .  A
C438       Br439   1.917       .  S
C443        C444   1.413       .  A
C443        C448   1.405   1_556  A
C443        H450   1.082       .  S
C444        C445   1.409       .  A
C445        C446   1.408   1_556  A
C445       Br452   1.913       .  S
C446        C447   1.414       .  A
C446        H451   1.083       .  S
C447        C448   1.408       .  A
C448       Br449   1.915       .  S
C453        C454   1.402       .  A
C453        C458   1.395   1_556  A
C453        H460   1.084       .  S
C454        C455   1.412       .  A
C455        C456   1.395   1_556  A
C455       Br462   1.922       .  S
C456        C457   1.404       .  A
C456        H461   1.084       .  S
C457        C458   1.413       .  A
C458       Br459   1.922       .  S
C463        C464   1.405       .  A
C463        C468   1.395       .  A
C463        H470   1.084       .  S
C464        C465   1.411       .  A
C465        C466   1.413       .  A
C465       Br472   1.915       .  S
C466        C467   1.413       .  A
C466        H471   1.083       .  S
C467        C468   1.416       .  A
C468       Br469   1.926       .  S
C473        C474   1.407       .  A
C473       C1310   1.403       .  A
C473        H480   1.084       .  S
C474        C475   1.399       .  A
C475        C476   1.393       .  A
C475       Br482   1.919       .  S
C476       C1309   1.411       .  A
C476        H481   1.083       .  S
C477        C478   1.407       .  A
C477       C1308   1.410       .  A
C478       C1305   1.402       .  A
C478       Br479   1.917   1_565  S
C483        C488   1.402       .  A
C483       C1316   1.412   1_554  A
C483       H1322   1.083       .  S
C484       C1315   1.414   1_556  A
C484       C1317   1.417       .  A
C485        C486   1.416   1_556  A
C485       C1316   1.415   1_545  A
C485       Br492   1.918       .  S
C486        C487   1.416       .  A
C486        H491   1.083       .  S
C487        C488   1.418   1_545  A
C488       Br489   1.924       .  S
H490       C1315   1.083       .  S
C493        C494   1.406       .  A
C493        C498   1.399       .  A
C493        H500   1.084       .  S
C494        C495   1.417       .  A
C495        C496   1.402       .  A
C495       Br502   1.923       .  S
C496        C497   1.406       .  A
C496        H501   1.083       .  S
C497        C498   1.415       .  A
C498       Br499   1.922       .  S
C503        C504   1.401       .  A
C503        C508   1.405   1_556  A
C503        H510   1.083       .  S
C504        C505   1.420   1_556  A
C505        C506   1.405       .  A
C505       Br512   1.922       .  S
C506        C507   1.404       .  A
C506        H511   1.083       .  S
C507        C508   1.426       .  A
C508       Br509   1.925   1_554  S
C513        C514   1.402       .  A
C513        C518   1.402       .  A
C513        H520   1.083       .  S
C514        C515   1.410       .  A
C515        C516   1.388       .  A
C515       Br522   1.924       .  S
C516        C517   1.403       .  A
C516        H521   1.085       .  S
C517        C518   1.413       .  A
C518       Br519   1.918       .  S
C523        C524   1.399       .  A
C523        C528   1.387       .  A
C523        H530   1.085       .  S
C524        C525   1.413       .  A
C525        C526   1.405       .  A
C525       Br532   1.918       .  S
C526        C527   1.402       .  A
C526       H1363   1.084       .  S
C527       C1143   1.466       .  S
C527        C528   1.409       .  A
C528       Br529   1.920       .  S
H531       C1358   1.084       .  S
C533        C534   1.404       .  A
C533        C538   1.394   1_655  A
C533        H540   1.084       .  S
C534        C535   1.409       .  A
C535        C536   1.399   1_655  A
C535       Br542   1.920       .  S
C536        C537   1.409       .  A
C536        H541   1.084       .  S
C537        C538   1.415       .  A
C538       Br539   1.925       .  S
C543        C544   1.402       .  A
C543        C548   1.389   1_556  A
C543        H550   1.085       .  S
C544        C545   1.401   1_556  A
C545        C546   1.391       .  A
C545       Br552   1.919       .  S
C546        C547   1.405       .  A
C546        H551   1.084       .  S
C547        C548   1.403       .  A
C548       Br549   1.921   1_554  S
C553        C554   1.410       .  A
C553        C558   1.405       .  A
C553        H560   1.084       .  S
C554        C555   1.405       .  A
C555        C556   1.406       .  A
C555       Br562   1.917       .  S
C556        C557   1.411       .  A
C556        H561   1.084       .  S
C557        C558   1.405       .  A
C558       Br559   1.917       .  S
C563        C564   1.414       .  A
C563        C568   1.400       .  A
C563        H570   1.083       .  S
C564        C565   1.421       .  A
C565        C566   1.418       .  A
C565       Br572   1.918       .  S
C566        C567   1.410       .  A
C566        H571   1.083       .  S
C567        C568   1.407       .  A
C568       Br569   1.922       .  S
C573        C574   1.404       .  A
C573        C578   1.391       .  A
C573        H580   1.084       .  S
C574        C575   1.404       .  A
C575        C576   1.398       .  A
C575       Br582   1.918       .  S
C576        C577   1.407       .  A
C576        H581   1.084       .  S
C577        C578   1.401       .  A
C578       Br579   1.919       .  S
C583        C584   1.413       .  A
C583        C588   1.402       .  A
C583        H590   1.084       .  S
C584        C585   1.404       .  A
C585        C586   1.405       .  A
C585       Br592   1.918       .  S
C586        C587   1.415       .  A
C586        H591   1.083       .  S
C587        C588   1.406       .  A
C588       Br589   1.919       .  S
C593        C594   1.409       .  A
C593        C598   1.409       .  A
C593        H600   1.083       .  S
C594        C595   1.411       .  A
C595        C596   1.399       .  A
C595       Br602   1.920       .  S
C596        C597   1.404       .  A
C596        H601   1.084       .  S
C597        C598   1.412       .  A
C598       Br599   1.919       .  S
C603        C604   1.416       .  A
C603        C608   1.400       .  A
C603        H610   1.084       .  S
C604        C605   1.407       .  A
C605        C606   1.409       .  A
C605       Br612   1.917       .  S
C606        C607   1.413       .  A
C606        H611   1.083       .  S
C607        C608   1.404       .  A
C608       Br609   1.920       .  S
C613        C614   1.403       .  A
C613        C618   1.397   1_655  A
C613        H620   1.084       .  S
C614        C615   1.409       .  A
C615        C616   1.403   1_655  A
C615       Br622   1.919       .  S
C616        C617   1.406       .  A
C616        H621   1.083       .  S
C617        C618   1.409       .  A
C618       Br619   1.920       .  S
C623        C624   1.408       .  A
C623        C628   1.391       .  A
C623        H630   1.084       .  S
C624        C625   1.400       .  A
C625        C626   1.392       .  A
C625       Br632   1.919       .  S
C626        C627   1.407       .  A
C626        H631   1.084       .  S
C627        C628   1.399       .  A
C628       Br629   1.920       .  S
C633        C634   1.394       .  A
C633        C638   1.400       .  A
C633        H640   1.084       .  S
C634        C635   1.421       .  A
C635        C636   1.404       .  A
C635       Br642   1.922       .  S
C636        C637   1.399       .  A
C636        H641   1.083       .  S
C637        C638   1.428       .  A
C638       Br639   1.924       .  S
C643        C644   1.418       .  A
C643       C1480   1.413       .  A
C643        H650   1.083       .  S
C644       C1477   1.415       .  A
C645        C646   1.408       .  A
C645       C1476   1.415   1_545  A
C645       Br652   1.920       .  S
C646        C647   1.415       .  A
C646        H651   1.083       .  S
C647        C648   1.414   1_545  A
C648       C1475   1.411       .  A
C648      Br1481   1.919       .  S
Br649      C1480   1.919       .  S
C653        C654   1.399       .  A
C653        C658   1.394       .  A
C653        H660   1.084       .  S
C654        C655   1.414       .  A
C655       C1488   1.405       .  A
C655       Br662   1.918       .  S
C656        C657   1.404       .  A
C656       C1487   1.408       .  A
C656        H661   1.083       .  S
C657       C1490   1.411       .  A
C658       C1489   1.411       .  A
C658       Br659   1.917       .  S
C663        C664   1.400       .  A
C663        C668   1.392       .  A
C663        H670   1.084       .  S
C664        C665   1.413       .  A
C665        C666   1.408       .  A
C665       Br672   1.918       .  S
C666        C667   1.405       .  A
C666        H671   1.083       .  S
C667        C668   1.410       .  A
C668       Br669   1.916       .  S
C673        C674   1.408       .  A
C673        C678   1.410       .  A
C673        H680   1.082       .  S
C674        C675   1.421       .  A
C675        C676   1.402       .  A
C675       Br682   1.917       .  S
C676        C677   1.398       .  A
C676        H681   1.082       .  S
C677        C678   1.413       .  A
C678       Br679   1.917       .  S
C683        C684   1.396       .  A
C683        C688   1.387       .  A
C683        H690   1.081       .  S
C684        C685   1.414       .  A
C685        C686   1.410       .  A
C685       Br692   1.918       .  S
C686        C687   1.406       .  A
C686        H691   1.083       .  S
C687        C926   1.476       .  S
C687        C688   1.411       .  A
C688       Br689   1.919       .  S
C693        C694   1.406       .  A
C693        C698   1.410       .  A
C693        H700   1.083       .  S
C694        C695   1.414       .  A
C695        C696   1.394       .  A
C695       Br702   1.922       .  S
C696        C697   1.401       .  A
C696        H701   1.084       .  S
C697        C698   1.414       .  A
C698       Br699   1.917       .  S
C703        C704   1.402       .  A
C703        C708   1.408       .  A
C703        H710   1.083       .  S
C704        C705   1.426       .  A
C705        C706   1.407       .  A
C705       Br712   1.924       .  S
C706        C707   1.403       .  A
C706        H711   1.083       .  S
C707        C708   1.426       .  A
C708       Br709   1.923       .  S
C713        C714   1.410       .  A
C713        C718   1.391       .  A
C713        H720   1.085       .  S
C714        C715   1.397       .  A
C715        C716   1.389       .  A
C715       Br722   1.920       .  S
C716        C717   1.411       .  A
C716        H721   1.085       .  S
C717        C718   1.399       .  A
C718       Br719   1.919       .  S
C723        C724   1.409       .  A
C723        C728   1.405       .  A
C723        H730   1.083       .  S
C724        C725   1.409       .  A
C725        C726   1.396       .  A
C725       Br732   1.921       .  S
C726        C727   1.404       .  A
C726        H731   1.084       .  S
C727        C728   1.408       .  A
C728       Br729   1.917       .  S
C733        C734   1.412       .  A
C733        C738   1.405       .  A
C733        H740   1.083       .  S
C734        C735   1.406       .  A
C735        C736   1.391       .  A
C735       Br742   1.924       .  S
C736        C737   1.407       .  A
C736        H741   1.081       .  S
C737        C738   1.403       .  A
C738       Br739   1.915       .  S
C743        C744   1.404       .  A
C743        C748   1.393       .  A
C743        H750   1.084       .  S
C744        C745   1.414       .  A
C745       C1578   1.410       .  A
C745       Br752   1.916       .  S
C746        C747   1.407       .  A
C746       C1577   1.411   1_545  A
C746        H751   1.083       .  S
C747       C1580   1.411   1_545  A
C748       C1579   1.412       .  A
C748       Br749   1.921       .  S
C753        C754   1.416       .  A
C753        C758   1.400       .  A
C753        H760   1.083       .  S
C754        C755   1.411       .  A
C755       C1588   1.405       .  A
C755       Br762   1.920   1_545  S
C756        C757   1.415       .  A
C756       C1587   1.408       .  A
C756        H761   1.083       .  S
C757       C1590   1.406       .  A
C758       C1589   1.407       .  A
C758       Br759   1.919       .  S
C763        C764   1.405       .  A
C763        C768   1.400   1_455  A
C763        H770   1.084       .  S
C764        C765   1.410       .  A
C765        C766   1.405   1_455  A
C765       Br772   1.919       .  S
C766        C767   1.409       .  A
C766        H771   1.083       .  S
C767        C768   1.411       .  A
C768       Br769   1.920       .  S
C773        C774   1.403       .  A
C773        C778   1.409       .  A
C773        H780   1.083       .  S
C774        C775   1.430       .  A
C775        C776   1.400       .  A
C775       Br782   1.927       .  S
C776        C777   1.394       .  A
C776        H781   1.084       .  S
C777        C778   1.418       .  A
C778       Br779   1.919       .  S
C783        C784   1.416       .  A
C783        C788   1.413       .  A
C783        H790   1.083       .  S
C784        C785   1.416       .  A
C785        C786   1.406       .  A
C785       Br792   1.923       .  S
C786        C787   1.413       .  A
C786        H791   1.083       .  S
C787        C788   1.415       .  A
C788       Br789   1.919       .  S
C793        C794   1.405       .  A
C793        C798   1.405       .  A
C793        H800   1.083       .  S
C794        C795   1.423       .  A
C795        C796   1.391       .  A
C795       Br802   1.925       .  S
C796        C797   1.391       .  A
C796        H801   1.084       .  S
C797        C798   1.411       .  A
C798       Br799   1.918       .  S
C803        C804   1.407       .  A
C803        C808   1.406       .  A
C803        H810   1.084       .  S
C804        C967   1.476       .  S
C804        C805   1.404       .  A
C805        C806   1.399       .  A
C805      Br1644   1.916       .  S
C806        C807   1.408       .  A
C806        H811   1.084       .  S
C807        C808   1.409       .  A
C808       Br809   1.919       .  S
Br812      C1637   1.916       .  S
C813        C814   1.408       .  A
C813        C818   1.400       .  A
C813        H820   1.083       .  S
C814        C815   1.420       .  A
C815        C816   1.405       .  A
C815       Br822   1.921       .  S
C816        C817   1.404       .  A
C816        H821   1.084       .  S
C817        C818   1.411       .  A
C818       Br819   1.922       .  S
C823        C824   1.409       .  A
C823        C828   1.399       .  A
C823        H830   1.084       .  S
C824        C825   1.418       .  A
C825        C826   1.390       .  A
C825       Br832   1.926       .  S
C826        C827   1.399       .  A
C826        H831   1.085       .  S
C827        C828   1.406       .  A
C828       Br829   1.918       .  S
O833       Cr851   2.004       .  S
O833        C841   1.265       .  A
O834       Cr851   1.967       .  S
O834        C835   1.257       .  A
C835        O836   1.260       .  A
C835       C1656   1.483       .  S
O836       Cr852   1.991       .  S
O837       Cr852   2.016       .  S
O837        C838   1.269       .  A
C838        O839   1.253       .  A
C838       C1626   1.486       .  S
O839       Cr853   1.962       .  S
O840       Cr853   2.016       .  S
O840        C841   1.267       .  A
C841       C1616   1.510       .  S
O842       Cr851   1.981       .  S
O842        C850   1.259       .  A
O843       Cr851   1.990       .  S
O843        C844   1.262       .  A
C844        O845   1.264       .  A
C844       C1639   1.480       .  S
O845       Cr852   1.995       .  S
O846       Cr852   1.974       .  S
O846        C847   1.260       .  A
C847        O848   1.280       .  A
C847       C1606   1.496       .  S
O848       Cr853   2.030       .  S
O849       Cr853   2.012       .  S
O849        C850   1.263       .  A
C850       C1646   1.497       .  S
Cr851       O854   1.782       .  S
Cr852       O854   1.778       .  S
Cr853       O854   1.775       .  S
O855       Cr873   2.052       .  S
O855        C863   1.278       .  A
O856       Cr873   1.971       .  S
O856        C857   1.254       .  A
C857        O858   1.258       .  A
C857       C1579   1.483       .  S
O858       Cr874   2.018       .  S
O859       Cr874   1.990       .  S
O859        C860   1.268       .  A
C860        O861   1.265       .  A
C860       C1659   1.462       .  S
O861       Cr875   1.986       .  S
O862       Cr875   1.941       .  S
O862        C863   1.254       .  A
C863       C1586   1.504       .  S
O864       Cr873   1.987       .  S
O864        C872   1.258       .  A
O865       Cr873   2.051       .  S
O865        C866   1.280       .  A
C866        O867   1.262       .  A
C866       C1556   1.485       .  S
O867       Cr874   1.958       .  S
O868       Cr874   1.993       .  S
O868        C869   1.262       .  A
C869        O870   1.258       .  A
C869       C1569   1.468       .  S
O870       Cr875   1.981       .  S
O871       Cr875   1.990       .  S
O871        C872   1.260       .  A
C872       C1599   1.485       .  S
Cr873       O876   1.778       .  S
Cr874       O876   1.787       .  S
Cr875       O876   1.780       .  S
O877       Cr895   2.056       .  S
O877        C885   1.282       .  A
O878       Cr895   1.971       .  S
O878        C879   1.253       .  A
C879        O880   1.259       .  A
C879       C1526   1.485       .  S
O880       Cr896   2.019       .  S
O881       Cr896   1.989       .  S
O881        C882   1.265       .  A
C882        O883   1.257       .  A
C882       C1549   1.450       .  S
O883       Cr897   1.969       .  S
O884       Cr897   1.953       .  S
O884        C885   1.255       .  A
C885       C1536   1.505       .  S
O886       Cr895   1.993       .  S
O886        C894   1.259       .  A
O887       Cr895   2.056       .  S
O887        C888   1.280       .  A
C888        O889   1.258       .  A
C888       C1506   1.483       .  S
O889       Cr896   1.949       .  S
O890       Cr896   1.991       .  S
O890        C891   1.266       .  A
C891        O892   1.265       .  A
C891       C1516   1.468       .  S
O892       Cr897   1.987       .  S
O893       Cr897   1.986       .  S
O893        C894   1.257       .  A
C894       C1649   1.485       .  S
Cr895       O898   1.775       .  S
Cr896       O898   1.777       .  S
Cr897       O898   1.782       .  S
O899       Cr917   1.962       .  S
O899        C907   1.260       .  A
O900       Cr917   1.963       .  S
O900        C901   1.255       .  A
C901        O902   1.263       .  A
C901       C1546   1.449       .  S
O902       Cr918   1.987       .  S
O903       Cr918   2.001       .  S
O903        C904   1.256       .  A
C904        O905   1.254       .  A
C904       C1489   1.475       .  S
O905       Cr919   1.975       .  S
O906       Cr919   2.060       .  S
O906        C907   1.282       .  A
C907       C1479   1.516       .  S
O908       Cr917   1.980       .  S
O908        C916   1.256       .  A
O909       Cr917   1.995       .  S
O909        C910   1.267       .  A
C910        O911   1.263       .  A
C910       C1496   1.472       .  S
O911       Cr918   1.981       .  S
O912       Cr918   1.955       .  S
O912        C913   1.258       .  A
C913        O914   1.281       .  A
C913       C1466   1.496       .  S
O914       Cr919   2.056       .  S
O915       Cr919   1.998       .  S
O915        C916   1.259       .  A
C916       C1596   1.482       .  S
Cr917       O920   1.787       .  S
Cr918       O920   1.779       .  S
Cr919       O920   1.782       .  S
O921       Cr939   1.975       .  S
O921        C929   1.261       .  A
O922       Cr939   1.967       .  S
O922        C923   1.255       .  A
C923        O924   1.265       .  A
C923       C1456   1.454       .  S
O924       Cr940   1.992       .  S
O925       Cr940   2.013       .  S
O925        C926   1.257   1_565  A
C926        O927   1.250       .  A
O927       Cr941   1.964   1_545  S
O928       Cr941   2.048       .  S
O928        C929   1.278       .  A
C929       C1476   1.516       .  S
O930       Cr939   1.986       .  S
O930        C938   1.258       .  A
O931       Cr939   1.997       .  S
O931        C932   1.269       .  A
C932        O933   1.267       .  A
C932       C1529   1.481       .  S
O933       Cr940   1.992       .  S
O934       Cr940   1.965       .  S
O934        C935   1.262       .  A
C935        O936   1.279       .  A
C935       C1439   1.496       .  S
O936       Cr941   2.051       .  S
O937       Cr941   1.985       .  S
O937        C938   1.257       .  A
C938       C1449   1.479       .  S
Cr939       O942   1.785       .  S
Cr940       O942   1.784       .  S
Cr941       O942   1.776       .  S
O943       Cr961   2.058       .  S
O943        C951   1.281       .  A
O944       Cr961   1.978       .  S
O944        C945   1.256       .  A
C945        O946   1.256       .  A
C945       C1499   1.473       .  S
O946       Cr962   1.995       .  S
O947       Cr962   1.991       .  S
O947        C948   1.261       .  A
C948        O949   1.254       .  A
C948       C1459   1.453       .  S
O949       Cr963   1.965       .  S
O950       Cr963   1.956       .  S
O950        C951   1.255       .  A
C951       C1539   1.508       .  S
O952       Cr961   2.005       .  S
O952        C960   1.262       .  A
O953       Cr961   2.054       .  S
O953        C954   1.280       .  A
C954        O955   1.262       .  A
C954       C1419   1.497       .  S
O955       Cr962   1.961       .  S
O956       Cr962   1.995       .  S
O956        C957   1.267       .  A
C957        O958   1.265       .  A
C957       C1486   1.476       .  S
O958       Cr963   1.987       .  S
O959       Cr963   1.977       .  S
O959        C960   1.257       .  A
C960       C1429   1.487       .  S
Cr961       O964   1.780       .  S
Cr962       O964   1.779       .  S
Cr963       O964   1.779       .  S
O965       Cr983   2.050   1_545  S
O965        C973   1.279   1_545  A
O966       Cr983   1.967   1_545  S
O966        C967   1.251       .  A
C967        O968   1.263   1_545  A
O968       Cr984   2.024       .  S
O969       Cr984   1.994       .  S
O969        C970   1.263       .  A
C970        O971   1.256       .  A
C970       C1406   1.456       .  S
O971       Cr985   1.972       .  S
O972       Cr985   1.941       .  S
O972        C973   1.255       .  A
C973       C1589   1.491   1_565  S
O974       Cr983   1.993       .  S
O974        C982   1.260       .  A
O975       Cr983   2.064       .  S
O975        C976   1.281       .  A
C976        O977   1.261       .  A
C976       C1396   1.513       .  S
O977       Cr984   1.958       .  S
O978       Cr984   2.013       .  S
O978        C979   1.270       .  A
C979        O980   1.262       .  A
C979       C1629   1.466       .  S
O980       Cr985   1.972       .  S
O981       Cr985   1.984       .  S
O981        C982   1.258       .  A
C982       C1446   1.476       .  S
Cr983       O986   1.776       .  S
Cr984       O986   1.772       .  S
Cr985       O986   1.781       .  S
O987      Cr1005   1.976       .  S
O987        C995   1.259       .  A
O988      Cr1005   1.982       .  S
O988        C989   1.259       .  A
C989        O990   1.264       .  A
C989       C1409   1.453       .  S
O990      Cr1006   1.985       .  S
O991      Cr1006   2.000       .  S
O991        C992   1.255       .  A
C992        O993   1.251       .  A
C992       C1566   1.470       .  S
O993      Cr1007   1.964       .  S
O994      Cr1007   2.043       .  S
O994        C995   1.274       .  A
C995       C1619   1.517       .  S
O996      Cr1005   2.002       .  S
O996       C1004   1.266       .  A
O997      Cr1005   2.003       .  S
O997        C998   1.268       .  A
C998        O999   1.263       .  A
C998       C1576   1.486       .  S
O999      Cr1006   1.974       .  S
O1000     Cr1006   1.959       .  S
O1000      C1001   1.262       .  A
C1001      O1002   1.280       .  A
C1001      C1386   1.500       .  S
O1002     Cr1007   2.061       .  S
O1003     Cr1007   1.989       .  S
O1003      C1004   1.261       .  A
C1004      C1426   1.490       .  S
Cr1005     O1008   1.780       .  S
Cr1006     O1008   1.772       .  S
Cr1007     O1008   1.775       .  S
O1009     Cr1027   1.960       .  S
O1009      C1017   1.257       .  A
O1010     Cr1027   1.963       .  S
O1010      C1011   1.256       .  A
C1011      O1012   1.258       .  A
C1011      C1376   1.438       .  S
O1012     Cr1028   1.977       .  S
O1013     Cr1028   1.989       .  S
O1013      C1014   1.255       .  A
C1014      O1015   1.255       .  A
C1014      C1346   1.466       .  S
O1015     Cr1029   1.969       .  S
O1016     Cr1029   2.038       .  S
O1016      C1017   1.276       .  A
C1017      C1336   1.495       .  S
O1018     Cr1027   1.981       .  S
O1018      C1026   1.257       .  A
O1019     Cr1027   1.986       .  S
O1019      C1020   1.265       .  A
C1020      O1021   1.266       .  A
C1020      C1356   1.473       .  S
O1021     Cr1028   1.985       .  S
O1022     Cr1028   1.961       .  S
O1022      C1023   1.260       .  A
C1023      O1024   1.275       .  A
C1023      C1609   1.484       .  S
O1024     Cr1029   2.038       .  S
O1025     Cr1029   1.983       .  S
O1025      C1026   1.259       .  A
C1026      C1366   1.471       .  S
Cr1027     O1030   1.780       .  S
Cr1028     O1030   1.776       .  S
Cr1029     O1030   1.771       .  S
O1031     Cr1049   2.011       .  S
O1031      C1039   1.268       .  A
O1032     Cr1049   1.976       .  S
O1032      C1033   1.259       .  A
C1033      O1034   1.265       .  A
C1033      C1309   1.480       .  S
O1034     Cr1050   2.002       .  S
O1035     Cr1050   1.989       .  S
O1035      C1036   1.259       .  A
C1036      O1037   1.250       .  A
C1036      C1379   1.450       .  S
O1037     Cr1051   1.948       .  S
O1038     Cr1051   2.025       .  S
O1038      C1039   1.271       .  A
C1039      C1319   1.521       .  S
O1040     Cr1049   2.001       .  S
O1040      C1048   1.263       .  A
O1041     Cr1049   2.020       .  S
O1041      C1042   1.276       .  A
C1042      O1043   1.261       .  A
C1042      C1559   1.476       .  S
O1043     Cr1050   1.977       .  S
O1044     Cr1050   1.978       .  S
O1044      C1045   1.261       .  A
C1045      O1046   1.269       .  A
C1045      C1299   1.492       .  S
O1046     Cr1051   2.031       .  S
O1047     Cr1051   1.982       .  S
O1047      C1048   1.260       .  A
C1048      C1329   1.485       .  S
Cr1049     O1052   1.766       .  S
Cr1050     O1052   1.773       .  S
Cr1051     O1052   1.777       .  S
O1053     Cr1071   2.045       .  S
O1053      C1061   1.275       .  A
O1054     Cr1071   1.947       .  S
O1054      C1055   1.238       .  A
C1055      O1056   1.268       .  A
C1055      C1266   1.486       .  S
O1056     Cr1072   2.051       .  S
O1057     Cr1072   1.970       .  S
O1057      C1058   1.256       .  A
C1058      O1059   1.257       .  A
C1058      C1286   1.465       .  S
O1059     Cr1073   1.972       .  S
O1060     Cr1073   1.986       .  S
O1060      C1061   1.260       .  A
C1061      C1276   1.504       .  S
O1062     Cr1071   1.989       .  S
O1062      C1070   1.261       .  A
O1063     Cr1071   2.020       .  S
O1063      C1064   1.281       .  A
C1064      O1065   1.268       .  A
C1064      C1509   1.484       .  S
O1065     Cr1072   1.990       .  S
O1066     Cr1072   2.013       .  S
O1066      C1067   1.273       .  A
C1067      O1068   1.256       .  A
C1067      C1256   1.482       .  S
O1068     Cr1073   1.957       .  S
O1069     Cr1073   1.980       .  S
O1069      C1070   1.255       .  A
C1070      C1369   1.486       .  S
Cr1071     O1074   1.768       .  S
Cr1072     O1074   1.775       .  S
Cr1073     O1074   1.774       .  S
O1075     Cr1093   1.993       .  S
O1075      C1083   1.258       .  A
O1076     Cr1093   1.970       .  S
O1076      C1077   1.256       .  A
C1077      O1078   1.259       .  A
C1077      C1289   1.465       .  S
O1078     Cr1094   1.976       .  S
O1079     Cr1094   1.999       .  S
O1079      C1080   1.262       .  A
C1080      O1081   1.251       .  A
C1080      C1239   1.466       .  S
O1081     Cr1095   1.959       .  S
O1082     Cr1095   2.023       .  S
O1082      C1083   1.268       .  A
C1083      C1226   1.493       .  S
O1084     Cr1093   1.969       .  S
O1084      C1092   1.254       .  A
O1085     Cr1093   1.972       .  S
O1085      C1086   1.256       .  A
C1086      O1087   1.264       .  A
C1086      C1246   1.458       .  S
O1087     Cr1094   1.982       .  S
O1088     Cr1094   1.990       .  S
O1088      C1089   1.265       .  A
C1089      O1090   1.282       .  A
C1089      C1469   1.500       .  S
O1090     Cr1095   2.026       .  S
O1091     Cr1095   2.014       .  S
O1091      C1092   1.266       .  A
C1092      C1326   1.487       .  S
Cr1093     O1096   1.783       .  S
Cr1094     O1096   1.770       .  S
Cr1095     O1096   1.772       .  S
O1097     Cr1115   1.999       .  S
O1097      C1105   1.258       .  A
O1098     Cr1115   1.975       .  S
O1098      C1099   1.261       .  A
C1099      O1100   1.259       .  A
C1099      C1216   1.468       .  S
O1100     Cr1116   1.979       .  S
O1101     Cr1116   2.009       .  S
O1101      C1102   1.264   1_565  A
C1102      O1103   1.253       .  A
O1103     Cr1117   1.954   1_545  S
O1104     Cr1117   2.024   1_545  S
O1104      C1105   1.269   1_545  A
C1105      C1229   1.497   1_565  S
O1106     Cr1115   1.989       .  S
O1106      C1114   1.262       .  A
O1107     Cr1115   1.993       .  S
O1107      C1108   1.258       .  A
C1108      O1109   1.266       .  A
C1108      C1269   1.484       .  S
O1109     Cr1116   1.985       .  S
O1110     Cr1116   1.979       .  S
O1110      C1111   1.263       .  A
C1111      O1112   1.279       .  A
C1111      C1436   1.499       .  S
O1112     Cr1117   2.030       .  S
O1113     Cr1117   1.996       .  S
O1113      C1114   1.265       .  A
C1114      C1209   1.494       .  S
Cr1115     O1118   1.789       .  S
Cr1116     O1118   1.776       .  S
Cr1117     O1118   1.770       .  S
O1119     Cr1137   2.027       .  S
O1119      C1127   1.268       .  A
O1120     Cr1137   1.962       .  S
O1120      C1121   1.254       .  A
C1121      O1122   1.261       .  A
C1121      C1249   1.458       .  S
O1122     Cr1138   2.001       .  S
O1123     Cr1138   1.971       .  S
O1123      C1124   1.256       .  A
C1124      O1125   1.259       .  A
C1124      C1219   1.465       .  S
O1125     Cr1139   1.977       .  S
O1126     Cr1139   1.990       .  S
O1126      C1127   1.260       .  A
C1127      C1279   1.504       .  S
O1128     Cr1137   2.006       .  S
O1128      C1136   1.264       .  A
O1129     Cr1137   2.027       .  S
O1129      C1130   1.278       .  A
C1130      O1131   1.264       .  A
C1130      C1416   1.496       .  S
O1131     Cr1138   1.988       .  S
O1132     Cr1138   1.995       .  S
O1132      C1133   1.269       .  A
C1133      O1134   1.258       .  A
C1133      C1236   1.470       .  S
O1134     Cr1139   1.966       .  S
O1135     Cr1139   1.978       .  S
O1135      C1136   1.260       .  A
C1136      C1199   1.488       .  S
Cr1137     O1140   1.770       .  S
Cr1138     O1140   1.772       .  S
Cr1139     O1140   1.774       .  S
O1141     Cr1159   2.054       .  S
O1141      C1149   1.280       .  A
O1142     Cr1159   1.964   1_545  S
O1142      C1143   1.252       .  A
C1143      O1144   1.257   1_545  A
O1144     Cr1160   1.997       .  S
O1145     Cr1160   2.006       .  S
O1145      C1146   1.266       .  A
C1146      O1147   1.252       .  A
C1146      C1186   1.468       .  S
O1147     Cr1161   1.964       .  S
O1148     Cr1161   1.964       .  S
O1148      C1149   1.261       .  A
C1149      C1316   1.513       .  S
O1150     Cr1159   1.997       .  S
O1150      C1158   1.259       .  A
O1151     Cr1159   2.051       .  S
O1151      C1152   1.277       .  A
C1152      O1153   1.262       .  A
C1152      C1399   1.490       .  S
O1153     Cr1160   1.970       .  S
O1154     Cr1160   1.980       .  S
O1154      C1155   1.267       .  A
C1155      O1156   1.266       .  A
C1155      C1349   1.474       .  S
O1156     Cr1161   1.986       .  S
O1157     Cr1161   1.978       .  S
O1157      C1158   1.255       .  A
C1158      C1206   1.484       .  S
Cr1159     O1162   1.774       .  S
Cr1160     O1162   1.775       .  S
Cr1161     O1162   1.780       .  S
O1163     Cr1181   1.957       .  S
O1163      C1171   1.256       .  A
O1164     Cr1181   1.962       .  S
O1164      C1165   1.251       .  A
C1165      O1166   1.268       .  A
C1165      C1189   1.468       .  S
O1166     Cr1182   2.011       .  S
O1167     Cr1182   2.042       .  S
O1167      C1168   1.267       .  A
C1168      O1169   1.253       .  A
C1168      C1296   1.497       .  S
O1169     Cr1183   1.959       .  S
O1170     Cr1183   2.047       .  S
O1170      C1171   1.279       .  A
C1171      C1339   1.500       .  S
O1172     Cr1181   1.973       .  S
O1172      C1180   1.255       .  A
O1173     Cr1181   1.969       .  S
O1173      C1174   1.263       .  A
C1174      O1175   1.274       .  A
C1174      C1306   1.464       .  S
O1175     Cr1182   2.021       .  S
O1176     Cr1182   1.963       .  S
O1176      C1177   1.260       .  A
C1177      O1178   1.277       .  A
C1177      C1389   1.482       .  S
O1178     Cr1183   2.048       .  S
O1179     Cr1183   1.996       .  S
O1179      C1180   1.260       .  A
C1180      C1196   1.476       .  S
Cr1181     O1184   1.770       .  S
Cr1182     O1184   1.773       .  S
Cr1183     O1184   1.766       .  S
C1185      C1186   1.412       .  A
C1185      C1190   1.394   1_556  A
C1185      H1192   1.084       .  S
C1186      C1187   1.401       .  A
C1187      C1188   1.395   1_556  A
C1187     Br1194   1.920       .  S
C1188      C1189   1.412       .  A
C1188      H1193   1.084       .  S
C1189      C1190   1.402       .  A
C1190     Br1191   1.920       .  S
C1195      C1196   1.402       .  A
C1195      C1200   1.403   1_655  A
C1195      H1202   1.083       .  S
C1196      C1197   1.411       .  A
C1197      C1198   1.395   1_655  A
C1197     Br1204   1.923       .  S
C1198      C1199   1.405       .  A
C1198      H1203   1.083       .  S
C1199      C1200   1.417       .  A
C1200     Br1201   1.920       .  S
C1205      C1206   1.408       .  A
C1205      C1210   1.402       .  A
C1205      H1212   1.084       .  S
C1206      C1207   1.408       .  A
C1207      C1208   1.399       .  A
C1207     Br1214   1.920   1_565  S
C1208      C1209   1.411       .  A
C1208      H1213   1.083       .  S
C1209      C1210   1.414       .  A
C1210     Br1211   1.920       .  S
C1215      C1216   1.402       .  A
C1215      C1220   1.391   1_556  A
C1215      H1222   1.084       .  S
C1216      C1217   1.413       .  A
C1217      C1218   1.393   1_556  A
C1217     Br1224   1.922       .  S
C1218      C1219   1.402       .  A
C1218      H1223   1.084       .  S
C1219      C1220   1.411       .  A
C1220     Br1221   1.924       .  S
C1225      C1226   1.403       .  A
C1225      C1230   1.403   1_554  A
C1225      H1232   1.083       .  S
C1226      C1227   1.415       .  A
C1227      C1228   1.413   1_554  A
C1227     Br1234   1.918       .  S
C1228      H1233   1.083       .  S
C1235      C1236   1.411       .  A
C1235      H1242   1.084       .  S
C1236      C1237   1.400       .  A
C1237      C1238   1.396       .  A
C1237     Br1244   1.920       .  S
C1238      H1243   1.083       .  S
C1239      C1240   1.401       .  A
C1240     Br1241   1.918       .  S
C1245      C1246   1.406       .  A
C1245      C1250   1.402       .  A
C1245      H1252   1.083       .  S
C1246      C1247   1.404       .  A
C1247      C1248   1.386       .  A
C1247     Br1254   1.921       .  S
C1248      C1249   1.401       .  A
C1248      H1253   1.081       .  S
C1249      C1250   1.404       .  A
C1250     Br1251   1.915       .  S
C1255      C1256   1.416       .  A
C1255      C1260   1.399       .  A
C1255      H1262   1.081       .  S
C1256      C1257   1.402       .  A
C1257      C1258   1.394       .  A
C1257     Br1264   1.915       .  S
C1258      C1259   1.413       .  A
C1258      H1263   1.084       .  S
C1259      C1260   1.400       .  A
C1265      C1266   1.403       .  A
C1265      C1270   1.411       .  A
C1265      H1272   1.083       .  S
C1266      C1267   1.425       .  A
C1267      C1268   1.386       .  A
C1267     Br1274   1.931       .  S
C1268      C1269   1.394       .  A
C1268      H1273   1.084       .  S
C1269      C1270   1.420       .  A
C1270     Br1271   1.917       .  S
C1275      C1276   1.414       .  A
C1275      C1280   1.405   1_556  A
C1275      H1282   1.082       .  S
C1276      C1277   1.409       .  A
C1277      C1278   1.412   1_556  A
C1277     Br1284   1.914       .  S
C1278      C1279   1.416       .  A
C1278      H1283   1.083       .  S
C1279      C1280   1.408       .  A
C1280     Br1281   1.915       .  S
C1285      C1286   1.402       .  A
C1285      C1290   1.395   1_556  A
C1285      H1292   1.084       .  S
C1286      C1287   1.411       .  A
C1287      C1288   1.392   1_556  A
C1287     Br1294   1.922       .  S
C1288      C1289   1.402       .  A
C1288      H1293   1.084       .  S
C1289      C1290   1.413       .  A
C1290     Br1291   1.923       .  S
C1295      C1296   1.406       .  A
C1295      C1300   1.393       .  A
C1295      H1302   1.084       .  S
C1296      C1297   1.414       .  A
C1297      C1298   1.415       .  A
C1297     Br1304   1.916       .  S
C1298      C1299   1.411       .  A
C1298      H1303   1.083       .  S
C1299      C1300   1.413       .  A
C1300     Br1301   1.925       .  S
C1305      C1306   1.407       .  A
C1305      H1312   1.084       .  S
C1306      C1307   1.398       .  A
C1307      C1308   1.393       .  A
C1307     Br1314   1.918       .  S
C1308      H1313   1.083       .  S
C1309      C1310   1.407       .  A
C1310     Br1311   1.916       .  S
C1315      C1320   1.407       .  A
C1317      C1318   1.419   1_556  A
C1317     Br1324   1.919       .  S
C1318      C1319   1.417       .  A
C1318      H1323   1.083       .  S
C1319      C1320   1.418       .  A
C1320     Br1321   1.923       .  S
C1325      C1326   1.405       .  A
C1325      C1330   1.399       .  A
C1325      H1332   1.084       .  S
C1326      C1327   1.418       .  A
C1327      C1328   1.400       .  A
C1327     Br1334   1.924       .  S
C1328      C1329   1.404       .  A
C1328      H1333   1.083       .  S
C1329      C1330   1.413       .  A
C1330     Br1331   1.922       .  S
C1335      C1336   1.402       .  A
C1335      C1340   1.404   1_556  A
C1335      H1342   1.084       .  S
C1336      C1337   1.418   1_556  A
C1337      C1338   1.403       .  A
C1337     Br1344   1.922       .  S
C1338      C1339   1.404       .  A
C1338      H1343   1.083       .  S
C1339      C1340   1.425       .  A
C1340     Br1341   1.925   1_554  S
C1345      C1346   1.404       .  A
C1345      C1350   1.403       .  A
C1345      H1352   1.083       .  S
C1346      C1347   1.408       .  A
C1347      C1348   1.388       .  A
C1347     Br1354   1.923       .  S
C1348      C1349   1.404       .  A
C1348      H1353   1.084       .  S
C1349      C1350   1.413       .  A
C1350     Br1351   1.918       .  S
C1355      C1356   1.402       .  A
C1355      C1360   1.386       .  A
C1355      H1362   1.085       .  S
C1356      C1357   1.414       .  A
C1357      C1358   1.405       .  A
C1357     Br1364   1.918       .  S
C1358      C1359   1.403       .  A
C1359      C1360   1.408       .  A
C1360     Br1361   1.923       .  S
C1365      C1366   1.405       .  A
C1365      C1370   1.401   1_655  A
C1365      H1372   1.084       .  S
C1366      C1367   1.405       .  A
C1367      C1368   1.393   1_655  A
C1367     Br1374   1.922       .  S
C1368      C1369   1.409       .  A
C1368      H1373   1.083       .  S
C1369      C1370   1.416       .  A
C1370     Br1371   1.923       .  S
C1375      C1376   1.400       .  A
C1375      C1380   1.387       .  A
C1375      H1382   1.085       .  S
C1376      C1377   1.400   1_556  A
C1377      C1378   1.390       .  A
C1377     Br1384   1.919       .  S
C1378      C1379   1.405       .  A
C1378      H1383   1.084       .  S
C1379      C1380   1.404   1_554  A
C1380     Br1381   1.920       .  S
C1385      C1386   1.412       .  A
C1385      C1390   1.399       .  A
C1385      H1392   1.083       .  S
C1386      C1387   1.414       .  A
C1387      C1388   1.412       .  A
C1387     Br1394   1.917       .  S
C1388      C1389   1.408       .  A
C1388      H1393   1.083       .  S
C1389      C1390   1.403       .  A
C1390     Br1391   1.919       .  S
C1395      C1396   1.416       .  A
C1395      C1400   1.401       .  A
C1395      H1402   1.083       .  S
C1396      C1397   1.419       .  A
C1397      C1398   1.415       .  A
C1397     Br1404   1.918   1_565  S
C1398      C1399   1.409       .  A
C1398      H1403   1.084   1_565  S
C1399      C1400   1.403       .  A
C1400     Br1401   1.919       .  S
C1405      C1406   1.405       .  A
C1405      C1410   1.391       .  A
C1405      H1412   1.084       .  S
C1406      C1407   1.402       .  A
C1407      C1408   1.395       .  A
C1407     Br1414   1.917       .  S
C1408      C1409   1.406       .  A
C1408      H1413   1.084       .  S
C1409      C1410   1.401       .  A
C1410     Br1411   1.920       .  S
C1415      C1416   1.415       .  A
C1415      C1420   1.405       .  A
C1415      H1422   1.084       .  S
C1416      C1417   1.406       .  A
C1417      C1418   1.408       .  A
C1417     Br1424   1.917       .  S
C1418      C1419   1.415       .  A
C1418      H1423   1.083       .  S
C1419      C1420   1.407       .  A
C1420     Br1421   1.919       .  S
C1425      C1426   1.409       .  A
C1425      C1430   1.409       .  A
C1425      H1432   1.083       .  S
C1426      C1427   1.410       .  A
C1427      C1428   1.398       .  A
C1427     Br1434   1.920       .  S
C1428      C1429   1.405       .  A
C1428      H1433   1.084       .  S
C1429      C1430   1.412       .  A
C1430     Br1431   1.918       .  S
C1435      C1436   1.415       .  A
C1435      C1440   1.403       .  A
C1435      H1442   1.084       .  S
C1436      C1437   1.407       .  A
C1437      C1438   1.411       .  A
C1437     Br1444   1.916       .  S
C1438      C1439   1.415       .  A
C1438      H1443   1.083       .  S
C1439      C1440   1.406       .  A
C1440     Br1441   1.920       .  S
C1445      C1446   1.404       .  A
C1445      C1450   1.399   1_655  A
C1445      H1452   1.083       .  S
C1446      C1447   1.410       .  A
C1447      C1448   1.404   1_655  A
C1447     Br1454   1.919   1_565  S
C1448      C1449   1.406       .  A
C1448      H1453   1.083   1_565  S
C1449      C1450   1.409       .  A
C1450     Br1451   1.920       .  S
C1455      C1456   1.409       .  A
C1455      C1460   1.394       .  A
C1455      H1462   1.084       .  S
C1456      C1457   1.399       .  A
C1457      C1458   1.390       .  A
C1457     Br1464   1.919       .  S
C1458      C1459   1.406       .  A
C1458      H1463   1.084       .  S
C1459      C1460   1.402       .  A
C1460     Br1461   1.921       .  S
C1465      C1466   1.398       .  A
C1465      C1470   1.405       .  A
C1465      H1472   1.084       .  S
C1466      C1467   1.423       .  A
C1467      C1468   1.406       .  A
C1467     Br1474   1.922       .  S
C1468      C1469   1.399       .  A
C1468      H1473   1.083       .  S
C1469      C1470   1.428       .  A
C1470     Br1471   1.924       .  S
C1475      C1476   1.417       .  A
C1475      H1482   1.083       .  S
C1477      C1478   1.409       .  A
C1477     Br1484   1.920       .  S
C1478      C1479   1.416       .  A
C1478      H1483   1.083       .  S
C1479      C1480   1.414       .  A
C1485      C1486   1.400       .  A
C1485      C1490   1.392       .  A
C1485      H1492   1.084       .  S
C1486      C1487   1.414       .  A
C1487     Br1494   1.918       .  S
C1488      C1489   1.402       .  A
C1488      H1493   1.083       .  S
C1490     Br1491   1.918       .  S
C1495      C1496   1.402       .  A
C1495      C1500   1.390       .  A
C1495      H1502   1.084       .  S
C1496      C1497   1.412       .  A
C1497      C1498   1.407       .  A
C1497     Br1504   1.918       .  S
C1498      C1499   1.405       .  A
C1498      H1503   1.083       .  S
C1499      C1500   1.408       .  A
C1500     Br1501   1.919       .  S
C1505      C1506   1.408       .  A
C1505      C1510   1.410       .  A
C1505      H1512   1.083       .  S
C1506      C1507   1.409       .  A
C1507      C1508   1.398       .  A
C1507     Br1514   1.923       .  S
C1508      C1509   1.405       .  A
C1508      H1513   1.081       .  S
C1509      C1510   1.411       .  A
C1510     Br1511   1.916       .  S
C1515      C1516   1.397       .  A
C1515      C1520   1.390       .  A
C1515      H1522   1.085       .  S
C1516      C1517   1.412       .  A
C1517      C1518   1.406       .  A
C1517     Br1524   1.917       .  S
C1518      C1519   1.404       .  A
C1518      H1523   1.083       .  S
C1519      C1520   1.413       .  A
C1520     Br1521   1.918       .  S
C1525      C1526   1.407       .  A
C1525      C1530   1.411       .  A
C1525      H1532   1.083       .  S
C1526      C1527   1.413       .  A
C1527      C1528   1.393       .  A
C1527     Br1534   1.920       .  S
C1528      C1529   1.401       .  A
C1528      H1533   1.084       .  S
C1529      C1530   1.414       .  A
C1530     Br1531   1.917       .  S
C1535      C1536   1.401       .  A
C1535      C1540   1.406       .  A
C1535      H1542   1.083       .  S
C1536      C1537   1.425       .  A
C1537      C1538   1.408       .  A
C1537     Br1544   1.924       .  S
C1538      C1539   1.404       .  A
C1538      H1543   1.083       .  S
C1539      C1540   1.427       .  A
C1540     Br1541   1.924       .  S
C1545      C1546   1.407       .  A
C1545      C1550   1.391       .  A
C1545      H1552   1.085       .  S
C1546      C1547   1.399       .  A
C1547      C1548   1.392       .  A
C1547     Br1554   1.920       .  S
C1548      C1549   1.408       .  A
C1548      H1553   1.085       .  S
C1549      C1550   1.399       .  A
C1550     Br1551   1.919       .  S
C1555      C1556   1.409       .  A
C1555      C1560   1.407       .  A
C1555      H1562   1.083       .  S
C1556      C1557   1.411       .  A
C1557      C1558   1.399       .  A
C1557     Br1564   1.921       .  S
C1558      C1559   1.405       .  A
C1558      H1563   1.084       .  S
C1559      C1560   1.408       .  A
C1560     Br1561   1.916       .  S
C1565      C1566   1.411       .  A
C1565      C1570   1.403       .  A
C1565      H1572   1.083       .  S
C1566      C1567   1.406       .  A
C1567      C1568   1.388       .  A
C1567     Br1574   1.924       .  S
C1568      C1569   1.405       .  A
C1568      H1573   1.081       .  S
C1569      C1570   1.403       .  A
C1570     Br1571   1.915       .  S
C1575      C1576   1.405       .  A
C1575      C1580   1.391       .  A
C1575      H1582   1.084       .  S
C1576      C1577   1.414       .  A
C1577     Br1584   1.915       .  S
C1578      C1579   1.406       .  A
C1578      H1583   1.083       .  S
C1580     Br1581   1.922       .  S
C1585      C1586   1.417       .  A
C1585      C1590   1.401       .  A
C1585      H1592   1.081       .  S
C1586      C1587   1.410       .  A
C1587     Br1594   1.919       .  S
C1588      C1589   1.414       .  A
C1588      H1593   1.083   1_545  S
C1590     Br1591   1.918       .  S
C1595      C1596   1.406       .  A
C1595      C1600   1.401   1_455  A
C1595      H1602   1.084       .  S
C1596      C1597   1.410       .  A
C1597      C1598   1.404   1_455  A
C1597     Br1604   1.919       .  S
C1598      C1599   1.407       .  A
C1598      H1603   1.083       .  S
C1599      C1600   1.410       .  A
C1600     Br1601   1.920       .  S
C1605      C1606   1.401       .  A
C1605      C1610   1.407       .  A
C1605      H1612   1.083       .  S
C1606      C1607   1.429       .  A
C1607      C1608   1.399       .  A
C1607     Br1614   1.927       .  S
C1608      C1609   1.394       .  A
C1608      H1613   1.084       .  S
C1609      C1610   1.418       .  A
C1610     Br1611   1.919       .  S
C1615      C1616   1.413       .  A
C1615      C1620   1.412       .  A
C1615      H1622   1.083       .  S
C1616      C1617   1.413       .  A
C1617      C1618   1.408       .  A
C1617     Br1624   1.920       .  S
C1618      C1619   1.416       .  A
C1618      H1623   1.083       .  S
C1619      C1620   1.417       .  A
C1620     Br1621   1.920       .  S
C1625      C1626   1.404       .  A
C1625      C1630   1.406       .  A
C1625      H1632   1.083       .  S
C1626      C1627   1.426       .  A
C1627      C1628   1.391       .  A
C1627     Br1634   1.927       .  S
C1628      C1629   1.390       .  A
C1628      H1633   1.084       .  S
C1629      C1630   1.412       .  A
C1630     Br1631   1.917       .  S
C1635      C1636   1.407       .  A
C1635      C1640   1.405       .  A
C1635      H1642   1.083       .  S
C1636      C1637   1.402       .  A
C1637      C1638   1.395       .  A
C1638      C1639   1.408       .  A
C1638      H1643   1.084       .  S
C1639      C1640   1.409       .  A
C1640     Br1641   1.919       .  S
C1645      C1646   1.409       .  A
C1645      C1650   1.401       .  A
C1645      H1652   1.083       .  S
C1646      C1647   1.420       .  A
C1647      C1648   1.403       .  A
C1647     Br1654   1.922       .  S
C1648      C1649   1.403       .  A
C1648      H1653   1.084       .  S
C1649      C1650   1.410       .  A
C1650     Br1651   1.921       .  S
C1655      C1656   1.410       .  A
C1655      C1660   1.399       .  A
C1655      H1662   1.083       .  S
C1656      C1657   1.419       .  A
C1657      C1658   1.393       .  A
C1657     Br1664   1.925       .  S
C1658      C1659   1.398       .  A
C1658      H1663   1.082       .  S
C1659      C1660   1.404       .  A
C1660     Br1661   1.918       .  S
