geometry optimzed in LAMMPS
_audit_creation_date              2020-12-01 
_audit_creation_method            'lammps2cif' 
_symmetry_space_group_name_H-M    'P1' 
_symmetry_Int_Tables_number       1 
_symmetry_cell_setting            triclinic 
loop_ 
_symmetry_equiv_pos_as_xyz 
  x,y,z 
_cell_length_a                    42.06733404 
_cell_length_b                    34.78660066742013 
_cell_length_c                    40.4030891679391 
_cell_angle_alpha                 89.96890988885923 
_cell_angle_beta                  89.78038716544629 
_cell_angle_gamma                 89.90833644958838 
loop_ 
_atom_site_label 
_atom_site_type_symbol 
_atom_site_fract_x 
_atom_site_fract_y 
_atom_site_fract_z 
_atom_site_charge 
O1          O  0.41398754  0.80529582  0.30731833    -0.82000
C2          C  0.30839295  0.89368021  0.33579355     0.97400
O3          O  0.33280505  0.88045047  0.34978279    -0.71100
O4          O  0.37785014  0.82974492  0.36208906    -0.74700
Al5        Al  0.37352066  0.87284185  0.33113575     1.49000
C6          C  0.36659263  0.79582269  0.36123396     0.92600
O7          O  0.33068894  0.77815549  0.27612519    -0.80900
O8          O  0.34275607  0.83506795  0.23184603    -0.74500
Al9        Al  0.37089746  0.79698242  0.29250094     1.90100
O10         O  0.29941021  0.82793880  0.28323427    -0.73600
O11         O  0.35688468  0.90437794  0.25716634    -0.73400
O12         O  0.30824505  0.89720224  0.30448034    -0.79100
O13         O  0.37233054  0.92159399  0.30684890    -0.77300
O14         O  0.35810397  0.84502994  0.29825344    -1.13400
O15         O  0.41592205  0.86734319  0.31605553    -0.72600
C16         C  0.43000795  0.83562916  0.31185572     0.98100
C17         C  0.30319727  0.79303465  0.27661415     0.94500
Al18       Al  0.32934259  0.86489931  0.27122485     1.55600
O19         O  0.35683064  0.78192947  0.33447989    -0.77200
C20         C  0.36859711  0.92921166  0.27626406     0.98700
C21         C  0.36677975  0.81355262  0.22642958     0.93600
O22         O  0.38596376  0.80720017  0.24956801    -0.82500
O23         O  0.61445279  0.80100418  0.25506136    -0.82000
C24         C  0.69190746  0.88529604  0.34249358     0.97400
O25         O  0.69143637  0.88973141  0.31138926    -0.71100
O26         O  0.69940532  0.81922641  0.29246140    -0.74700
Al27       Al  0.67095420  0.85696450  0.27887271     1.49000
C28         C  0.69536614  0.78414073  0.28642659     0.92600
O29         O  0.63761889  0.77529979  0.34164447    -0.80900
O30         O  0.58383825  0.86403797  0.32287081    -0.74500
Al31       Al  0.62672633  0.79106535  0.29910381     1.90100
O32         O  0.62023693  0.82499814  0.36949088    -0.73600
O33         O  0.62913363  0.91578896  0.31297213    -0.73400
O34         O  0.66733783  0.87287169  0.35692776    -0.79100
O35         O  0.64443794  0.89675263  0.26352558    -0.77300
O36         O  0.64096069  0.83848448  0.30532679    -1.13400
O37         O  0.65922056  0.82711059  0.24006424    -0.72600
C38         C  0.63538249  0.80640683  0.23325023     0.98100
C39         C  0.62952278  0.79020836  0.36864584     0.94500
Al40       Al  0.62620411  0.86735575  0.33805594     1.55600
O41         O  0.66753882  0.77015829  0.28539201    -0.77200
C42         C  0.63335693  0.92259652  0.28220594     0.98700
C43         C  0.56860359  0.83388074  0.31603991     0.93600
O44         O  0.58329703  0.80247629  0.31133862    -0.82500
O45         O  0.58758084  0.69741212  0.06607831    -0.82000
C46         C  0.69273621  0.60950592  0.09057374     0.97400
O47         O  0.66851283  0.62190503  0.10565084    -0.71100
O48         O  0.62255663  0.67130897  0.11948330    -0.74700
Al49       Al  0.62746824  0.62896738  0.08787282     1.49000
C50         C  0.63463863  0.70476032  0.11945507     0.92600
O51         O  0.67154814  0.72456999  0.03389959    -0.80900
O52         O  0.65844838  0.66781000  0.48879927    -0.74500
Al53       Al  0.63088546  0.70598381  0.05087064     1.90100
O54         O  0.70149145  0.67310161  0.03639267    -0.73600
O55         O  0.64162955  0.59883879  0.01354778    -0.73400
O56         O  0.69181914  0.60500024  0.05929669    -0.79100
O57         O  0.62898911  0.58000508  0.06354504    -0.77300
O58         O  0.64276906  0.65747294  0.05497821    -1.13400
O59         O  0.58511242  0.63475098  0.07303772    -0.72600
C60         C  0.57137142  0.66681569  0.06942454     0.98100
C61         C  0.69847772  0.70837224  0.03109371     0.94500
Al62       Al  0.67026026  0.63732191  0.02655815     1.55600
O63         O  0.64569432  0.71876995  0.09316673    -0.77200
C64         C  0.63170073  0.57299271  0.03273540     0.98700
C65         C  0.63509695  0.69046440  0.48420117     0.93600
O66         O  0.61674954  0.69811471  0.50787797    -0.82500
O67         O  0.39061285  0.70136625  0.49766612    -0.82000
C68         C  0.31033977  0.61753160  0.08223450     0.97400
O69         O  0.31225716  0.61174027  0.05122970    -0.71100
O70         O  0.30330433  0.67982623  0.02834285    -0.74700
Al71       Al  0.33406444  0.64371590  0.01844869     1.49000
C72         C  0.30649594  0.71486452  0.02215319     0.92600
O73         O  0.36028962  0.72896783  0.08176175    -0.80900
O74         O  0.41844025  0.64188737  0.06694184    -0.74500
Al75       Al  0.37445990  0.71247376  0.04010574     1.90100
O76         O  0.37916456  0.68114768  0.11084301    -0.73600
O77         O  0.37505532  0.58764264  0.05655600    -0.73400
O78         O  0.33391617  0.63108774  0.09737380    -0.79100
O79         O  0.36288345  0.60517289  0.00599340    -0.77300
O80         O  0.36152825  0.66461996  0.04634374    -1.13400
O81         O  0.34806696  0.67217870  0.48044995    -0.72600
C82         C  0.37154138  0.69407772  0.47469319     0.98100
C83         C  0.36876013  0.71549834  0.10914682     0.94500
Al84       Al  0.37555781  0.63736581  0.08033078     1.55600
O85         O  0.33361317  0.73091491  0.02330947    -0.77200
C86         C  0.37337487  0.58019194  0.02564185     0.98700
C87         C  0.43313070  0.67291159  0.06161292     0.93600
O88         O  0.41774202  0.70350717  0.05536818    -0.82500
O89         O  0.08770046  0.80568941  0.44004725    -0.82000
C90         C  0.19331316  0.89350719  0.41554107     0.97400
O91         O  0.16997586  0.87989759  0.39989301    -0.71100
O92         O  0.12468315  0.82958195  0.38698152    -0.74700
Al93       Al  0.12824742  0.87318083  0.41678372     1.49000
C94         C  0.13628447  0.79591467  0.38809784     0.92600
O95         O  0.17024426  0.78067707  0.47557783    -0.80900
O96         O  0.15061767  0.83921890  0.01822243    -0.74500
Al97       Al  0.13030130  0.79802621  0.45674414     1.90100
O98         O  0.19995425  0.83231787  0.47343548    -0.73600
O99         O  0.13863715  0.90741913  0.49022390    -0.73400
O100        O  0.19126841  0.89859750  0.44673208    -0.79100
O101        O  0.12908815  0.92320490  0.43876013    -0.77300
O102        O  0.14229664  0.84637270  0.45121155    -1.13400
O103        O  0.08526267  0.86793225  0.43067689    -0.72600
C104        C  0.07150564  0.83605591  0.43555974     0.98100
C105        C  0.19687231  0.79717975  0.47919008     0.94500
Al106      Al  0.16817540  0.86831437  0.48001752     1.55600
O107        O  0.14644939  0.78273055  0.41508447    -0.77200
C108        C  0.13060983  0.93211917  0.46918735     0.98700
C109        C  0.12721545  0.81661915  0.02213105     0.93600
O110        O  0.11069568  0.80714748  0.99768406    -0.82500
O111        O  0.89151580  0.80487910  0.00183595    -0.82000
C112        C  0.80939714  0.88573584  0.41815734     0.97400
O113        O  0.81180647  0.89178018  0.44908078    -0.71100
O114        O  0.80497842  0.82511020  0.47666713    -0.74700
Al115      Al  0.83579764  0.86278066  0.48208529     1.49000
C116        C  0.80930671  0.79043022  0.48384642     0.92600
O117        O  0.86020673  0.77581625  0.41930900    -0.80900
O118        O  0.91825169  0.86396174  0.43046117    -0.74500
Al119      Al  0.87594694  0.79345345  0.46020237     1.90100
O120        O  0.87900373  0.82301814  0.38915679    -0.73600
O121        O  0.87439666  0.91788925  0.43953191    -0.73400
O122        O  0.83287485  0.87253533  0.40225631    -0.79100
O123        O  0.86424173  0.90271724  0.49102306    -0.77300
O124        O  0.86226114  0.84105000  0.45344261    -1.13400
O125        O  0.85079761  0.83605419  0.02167356    -0.72600
C126        C  0.87407426  0.81338106  0.02600520     0.98100
C127        C  0.86920095  0.78866362  0.39171487     0.94500
Al128      Al  0.87507566  0.86737936  0.41810731     1.55600
O129        O  0.83648912  0.77500463  0.48018866    -0.77200
C130        C  0.87383468  0.92674441  0.47004713     0.98700
C131        C  0.93326511  0.83310927  0.43568037     0.93600
O132        O  0.91834031  0.80235656  0.44250624    -0.82500
O133        O  0.91580013  0.70221039  0.19628238    -0.82000
C134        C  0.81105133  0.61473054  0.16439843     0.97400
O135        O  0.83506546  0.62905260  0.15032599    -0.71100
O136        O  0.88059388  0.68014864  0.13992016    -0.74700
Al137      Al  0.87587139  0.63577185  0.16936990     1.49000
C138        C  0.86998215  0.71437261  0.14168235     0.92600
O139        O  0.83137258  0.72739287  0.22687555    -0.80900
O140        O  0.84341103  0.66867050  0.26944280    -0.74500
Al141      Al  0.87234376  0.70993332  0.21054320     1.90100
O142        O  0.80093667  0.67736590  0.21867651    -0.73600
O143        O  0.85970607  0.60179000  0.24241022    -0.73400
O144        O  0.81154241  0.60912388  0.19545992    -0.79100
O145        O  0.87492033  0.58588063  0.19223799    -0.77300
O146        O  0.86001616  0.66213833  0.20307030    -1.13400
O147        O  0.91792262  0.64058662  0.18491634    -0.72600
C148        C  0.93180266  0.67192312  0.19090252     0.98100
C149        C  0.80407495  0.71193539  0.22692678     0.94500
Al150      Al  0.83139698  0.64060136  0.22944251     1.55600
O151        O  0.85947256  0.72704822  0.16870008    -0.77200
C152        C  0.87207736  0.57781788  0.22291042     0.98700
C153        C  0.86695654  0.69006371  0.27599595     0.93600
O154        O  0.88653710  0.69801803  0.25341690    -0.82500
O155        O  0.11684528  0.70332443  0.25020467    -0.82000
C156        C  0.19239946  0.62276826  0.15800324     0.97400
O157        O  0.19349879  0.61857054  0.18915094    -0.71100
O158        O  0.20121665  0.68892149  0.20894117    -0.74700
Al159      Al  0.17386526  0.65012359  0.22324828     1.49000
C160        C  0.19630984  0.72348588  0.21634401     0.92600
O161        O  0.13736320  0.73200310  0.16358016    -0.80900
O162        O  0.08485716  0.64228911  0.18396159    -0.74500
Al163      Al  0.12780949  0.71520032  0.20618094     1.90100
O164        O  0.11886185  0.68263456  0.13619862    -0.73600
O165        O  0.13097542  0.59113442  0.19063022    -0.73400
O166        O  0.16706904  0.63488575  0.14502740    -0.79100
O167        O  0.14871011  0.60969876  0.23911655    -0.77300
O168        O  0.14254539  0.66831148  0.19856403    -1.13400
O169        O  0.16278661  0.67879899  0.26341832    -0.72600
C170        C  0.13832428  0.69814690  0.27133604     0.98100
C171        C  0.12753547  0.71761426  0.13704666     0.94500
Al172      Al  0.12667141  0.63975506  0.16638405     1.55600
O173        O  0.16827454  0.73652855  0.21904596    -0.77200
C174        C  0.13614542  0.58436292  0.22118498     0.98700
C175        C  0.06975259  0.67262210  0.19087819     0.93600
O176        O  0.08443423  0.70394733  0.19507186    -0.82500
O177        O  0.58878536  0.30169351  0.44447667    -0.82000
C178        C  0.69834439  0.38367537  0.41350485     0.97400
O179        O  0.67421157  0.37048745  0.39903095    -0.71100
O180        O  0.62727905  0.32159983  0.38708066    -0.74700
Al181      Al  0.63280872  0.36535340  0.41746481     1.49000
C182        C  0.63568507  0.28644820  0.38909065     0.92600
O183        O  0.67209571  0.26962741  0.47381065    -0.80900
O184        O  0.66357788  0.32678176  0.01524262    -0.74500
Al185      Al  0.63184545  0.29052521  0.45831384     1.90100
O186        O  0.70486386  0.31786711  0.46521331    -0.73600
O187        O  0.64972784  0.39663637  0.49157572    -0.73400
O188        O  0.69762421  0.38796841  0.44462796    -0.79100
O189        O  0.63505565  0.41460339  0.44172689    -0.77300
O190        O  0.64675783  0.33740512  0.45100955    -1.13400
O191        O  0.59025642  0.36286898  0.43186946    -0.72600
C192        C  0.57452400  0.33298407  0.43815684     0.98100
C193        C  0.70007802  0.28313196  0.47200581     0.94500
Al194      Al  0.67630417  0.35631896  0.47757679     1.55600
O195        O  0.64372732  0.27267197  0.41648193    -0.77200
C196        C  0.63828284  0.42183266  0.47255478     0.98700
C197        C  0.63901626  0.30671088  0.02128664     0.93600
O198        O  0.61875939  0.30218549  0.99888043    -0.82500
O199        O  0.39219185  0.30500671  0.99219151    -0.82000
C200        C  0.31448305  0.39249344  0.40701647     0.97400
O201        O  0.31367508  0.39608583  0.43824862    -0.71100
O202        O  0.30500041  0.32609948  0.45709915    -0.74700
Al203      Al  0.33365934  0.36326590  0.47116609     1.49000
C204        C  0.30856060  0.29150745  0.46494685     0.92600
O205        O  0.36402759  0.28238705  0.40830653    -0.80900
O206        O  0.42214511  0.36776850  0.42952451    -0.74500
Al207      Al  0.37676652  0.29667271  0.45058761     1.90100
O208        O  0.38512761  0.33103112  0.38148696    -0.73600
O209        O  0.37808449  0.42196127  0.43916919    -0.73400
O210        O  0.33979727  0.38127056  0.39337916    -0.79100
O211        O  0.35977838  0.40235889  0.48715287    -0.77300
O212        O  0.36378274  0.34470670  0.44503034    -1.13400
O213        O  0.34805530  0.33187599  0.00933985    -0.72600
C214        C  0.37253075  0.31142059  0.01508217     0.98100
C215        C  0.37346910  0.29718923  0.38171415     0.94500
Al216      Al  0.38011119  0.37358700  0.41326968     1.55600
O217        O  0.33618186  0.27701522  0.46591721    -0.77200
C218        C  0.37273710  0.42804768  0.46991241     0.98700
C219        C  0.43611613  0.33608001  0.43430521     0.93600
O220        O  0.42011601  0.30545762  0.43697671    -0.82500
O221        O  0.42191873  0.20196833  0.18611823    -0.82000
C222        C  0.31424920  0.11864999  0.15779992     0.97400
O223        O  0.33886881  0.13057606  0.14325779    -0.71100
O224        O  0.38581569  0.17831643  0.13041271    -0.74700
Al225      Al  0.37983014  0.13615673  0.16190907     1.49000
C226        C  0.37557515  0.21271050  0.13076173     0.92600
O227        O  0.33827656  0.23363106  0.21491573    -0.80900
O228        O  0.34857776  0.17710452  0.26036139    -0.74500
Al229      Al  0.37877466  0.21284921  0.19975389     1.90100
O230        O  0.30653059  0.18439827  0.20895769    -0.73600
O231        O  0.36238346  0.10724573  0.23631771    -0.73400
O232        O  0.31454175  0.11453752  0.18903511    -0.79100
O233        O  0.37693442  0.08771565  0.18690158    -0.77300
O234        O  0.36496181  0.16527470  0.19446373    -1.13400
O235        O  0.42215533  0.13985935  0.17709392    -0.72600
C236        C  0.43706899  0.17080513  0.18200525     0.98100
C237        C  0.31050091  0.21945250  0.21491519     0.94500
Al238      Al  0.33559016  0.14694049  0.22162619     1.55600
O239        O  0.36628132  0.22755857  0.15740229    -0.77200
C240        C  0.37304097  0.08111084  0.21770125     0.98700
C241        C  0.37269699  0.19810257  0.26589365     0.93600
O242        O  0.39262303  0.20329472  0.24314001    -0.82500
O243        O  0.61708921  0.19541164  0.24840649    -0.82000
C244        C  0.69907843  0.11159228  0.16426928     0.97400
O245        O  0.69833370  0.10840038  0.19557128    -0.71100
O246        O  0.70478233  0.17787525  0.21745901    -0.74700
Al247      Al  0.67555679  0.13966052  0.22808678     1.49000
C248        C  0.70005048  0.21283490  0.22343684     0.92600
O249        O  0.64697974  0.22164947  0.16411726    -0.80900
O250        O  0.59040704  0.13381756  0.18077549    -0.74500
Al251      Al  0.63279010  0.20596662  0.20575744     1.90100
O252        O  0.62909023  0.17267269  0.13566687    -0.73600
O253        O  0.63471644  0.08093893  0.19146147    -0.73400
O254        O  0.67473221  0.12338732  0.14927931    -0.79100
O255        O  0.64875455  0.09930756  0.24119597    -0.77300
O256        O  0.64709790  0.15840129  0.20021230    -1.13400
O257        O  0.66039335  0.16848532  0.26685983    -0.72600
C258        C  0.63586489  0.18915136  0.27188675     0.98100
C259        C  0.63933236  0.20707266  0.13688619     0.94500
Al260      Al  0.63329072  0.12978526  0.16689504     1.55600
O261        O  0.67219988  0.22659983  0.22291908    -0.77200
C262        C  0.63768816  0.07391458  0.22226082     0.98700
C263        C  0.57544234  0.16476351  0.18552584     0.93600
O264        O  0.59050319  0.19577948  0.19015885    -0.82500
O265        O  0.92206110  0.30166866  0.30526754    -0.82000
C266        C  0.81373254  0.38545023  0.33433269     0.97400
O267        O  0.83820191  0.37309801  0.34885819    -0.71100
O268        O  0.88461222  0.32359572  0.36054195    -0.74700
Al269      Al  0.87948577  0.36719733  0.33020407     1.49000
C270        C  0.87471882  0.28904475  0.35902737     0.92600
O271        O  0.83943663  0.27176086  0.27356545    -0.80900
O272        O  0.84984463  0.33065780  0.23082248    -0.74500
Al273      Al  0.87928604  0.29198147  0.29026793     1.90100
O274        O  0.80684838  0.32014765  0.28110327    -0.73600
O275        O  0.86242965  0.39875488  0.25663094    -0.73400
O276        O  0.81420182  0.38955769  0.30316274    -0.79100
O277        O  0.87742346  0.41644072  0.30624411    -0.77300
O278        O  0.86499093  0.33928928  0.29692356    -1.13400
O279        O  0.92213083  0.36359357  0.31521532    -0.72600
C280        C  0.93707453  0.33265759  0.31013142     0.98100
C281        C  0.81150524  0.28539662  0.27412229     0.94500
Al282      Al  0.83585825  0.35856715  0.27004058     1.55600
O283        O  0.86593969  0.27517819  0.33189776    -0.77200
C284        C  0.87389983  0.42380672  0.27553251     0.98700
C285        C  0.87455554  0.31087947  0.22487648     0.93600
O286        O  0.89404340  0.30420121  0.24767293    -0.82500
O287        O  0.11788489  0.30727381  0.24874700    -0.82000
C288        C  0.19665594  0.39449475  0.33194736     0.97400
O289        O  0.19564885  0.39861703  0.30069363    -0.71100
O290        O  0.20477188  0.33017237  0.27804491    -0.74700
Al291      Al  0.17396056  0.36675101  0.26810365     1.49000
C292        C  0.20147343  0.29514999  0.27161005     0.92600
O293        O  0.14940483  0.28409184  0.33315602    -0.80900
O294        O  0.08902451  0.36876138  0.31457336    -0.74500
Al295      Al  0.13415235  0.29813269  0.29126541     1.90100
O296        O  0.12726088  0.33169454  0.36040989    -0.73600
O297        O  0.13226277  0.42332969  0.30563824    -0.73400
O298        O  0.17264955  0.38176765  0.34721947    -0.79100
O299        O  0.14558316  0.40575744  0.25542629    -0.77300
O300        O  0.14641704  0.34645944  0.29622240    -1.13400
O301        O  0.15952472  0.33756672  0.22967531    -0.72600
C302        C  0.13591928  0.31548255  0.22493467     0.98100
C303        C  0.13955944  0.29833139  0.35988251     0.94500
Al304      Al  0.13139298  0.37440798  0.32944556     1.55600
O305        O  0.17427440  0.27969388  0.27348698    -0.77200
C306        C  0.13467196  0.43072543  0.27489911     0.98700
C307        C  0.07513462  0.33708410  0.30976853     0.93600
O308        O  0.09115384  0.30629587  0.30709796    -0.82500
O309        O  0.08979482  0.20608839  0.05553663    -0.82000
C310        C  0.19574635  0.11903016  0.08421767     0.97400
O311        O  0.17134451  0.13159564  0.09880162    -0.71100
O312        O  0.12562773  0.18170049  0.11123241    -0.74700
Al313      Al  0.13048430  0.13881583  0.08000306     1.49000
C314        C  0.13645485  0.21584392  0.11030124     0.92600
O315        O  0.17370437  0.23422465  0.02561327    -0.80900
O316        O  0.16311577  0.17900525  0.48136833    -0.74500
Al317      Al  0.13302039  0.21505512  0.04141394     1.90100
O318        O  0.20479278  0.18459860  0.03313869    -0.73600
O319        O  0.14767071  0.10937207  0.00576077    -0.73400
O320        O  0.19532914  0.11485480  0.05303656    -0.79100
O321        O  0.13190350  0.09004229  0.05485627    -0.77300
O322        O  0.14599057  0.16718569  0.04732593    -1.13400
O323        O  0.08836273  0.14413386  0.06494349    -0.72600
C324        C  0.07406696  0.17557636  0.06023353     0.98100
C325        C  0.20127516  0.21941486  0.02582856     0.94500
Al326      Al  0.17512893  0.14782238  0.02043680     1.55600
O327        O  0.14596918  0.23006965  0.08349665    -0.77200
C328        C  0.13572914  0.08375357  0.02394489     0.98700
C329        C  0.13877851  0.19925405  0.47490381     0.93600
O330        O  0.11854867  0.20515016  0.49728680    -0.82500
O331        O  0.89284857  0.19967513  0.49983846    -0.82000
C332        C  0.81384271  0.11567063  0.08416140     0.97400
O333        O  0.81426315  0.11207151  0.05288891    -0.71100
O334        O  0.80591763  0.18178565  0.03206507    -0.74700
Al335      Al  0.83554182  0.14432197  0.02004845     1.49000
C336        C  0.81017063  0.21670496  0.02577368     0.92600
O337        O  0.86413972  0.22657721  0.08325714    -0.80900
O338        O  0.92146072  0.13971883  0.06510018    -0.74500
Al339      Al  0.87779590  0.21124264  0.04137351     1.90100
O340        O  0.88406437  0.17798098  0.11075169    -0.73600
O341        O  0.87747487  0.08690526  0.05591913    -0.73400
O342        O  0.83803680  0.12866277  0.09867863    -0.79100
O343        O  0.86295342  0.10476912  0.00612240    -0.77300
O344        O  0.86428724  0.16355980  0.04720541    -1.13400
O345        O  0.84915170  0.17300581  0.48225110    -0.72600
C346        C  0.87370188  0.19335832  0.47670932     0.98100
C347        C  0.87406667  0.21243488  0.10989663     0.94500
Al348      Al  0.87910073  0.13530432  0.08012697     1.55600
O349        O  0.83780625  0.23105348  0.02496777    -0.77200
C350        C  0.87436866  0.07968805  0.02524014     0.98700
C351        C  0.93597098  0.17098906  0.06067823     0.93600
O352        O  0.92054124  0.20183296  0.05619539    -0.82500
C353        C  0.02276712  0.14278052  0.07165379    -0.12500
C354        C  0.03866906  0.17613846  0.06096150     0.04500
C355        C  0.02022267  0.20820692  0.05079661    -0.07800
C356        C  0.98696128  0.20542312  0.05047947    -0.08500
C357        C  0.97124796  0.17198799  0.06103916    -0.03100
C358        C  0.98961845  0.14055275  0.07211581     0.03800
N359        N  0.97511085  0.10643142  0.08479526     0.66300
H360        H  0.03614508  0.11799686  0.08016486     0.15200
H361        H  0.97326316  0.23008744  0.04226686     0.14900
N362        N  0.03439219  0.24390322  0.04094598     0.74000
O363        O  0.97174048  0.07753576  0.06628166    -0.39500
O364        O  0.96932373  0.10356286  0.11536612    -0.39400
O365        O  0.02511926  0.26145476  0.51828341    -0.40100
O366        O  0.04931180  0.26354562  0.06203824    -0.40200
C367        C  0.15710987  0.29659193  0.16967849    -0.12500
C368        C  0.13257610  0.29400288  0.19321748     0.04500
C369        C  0.10897946  0.26526458  0.18889824    -0.07800
C370        C  0.11136864  0.23900557  0.16264415    -0.08500
C371        C  0.13646997  0.24104184  0.13986776    -0.03100
C372        C  0.15931973  0.27052368  0.14339687     0.03800
N373        N  0.18601574  0.27304562  0.12149944     0.66300
H374        H  0.17585217  0.31771598  0.17259157     0.15200
H375        H  0.09299306  0.21742371  0.15961234     0.14900
N376        N  0.08255783  0.26197743  0.21107761     0.74000
O377        O  0.18744654  0.29976041  0.10040942    -0.39500
O378        O  0.20986666  0.25166930  0.12604975    -0.39400
O379        O  0.05846331  0.28310747  0.20709533    -0.40100
O380        O  0.08141740  0.23452702  0.23147834    -0.40200
C381        C  0.16291240  0.22113765  0.42158498    -0.12500
C382        C  0.13669020  0.22128580  0.44330341     0.04500
C383        C  0.11186729  0.24815788  0.43751668    -0.07800
C384        C  0.11407478  0.27422073  0.41120071    -0.08500
C385        C  0.14034154  0.27412943  0.38992133    -0.03100
C386        C  0.16511018  0.24746091  0.39536666     0.03800
N387        N  0.19349892  0.24842793  0.37571408     0.66300
H388        H  0.18280829  0.20191916  0.42603016     0.15200
H389        H  0.09455974  0.29406013  0.40683205     0.14900
N390        N  0.08445557  0.25009523  0.45845823     0.74000
O391        O  0.21089173  0.27796964  0.37591453    -0.39500
O392        O  0.20273836  0.21866750  0.36062090    -0.39400
O393        O  0.07943571  0.27982149  0.47559819    -0.40100
O394        O  0.06317365  0.22470349  0.45630250    -0.40200
C395        C  0.89374326  0.25359586  0.19451387    -0.12500
C396        C  0.87782430  0.28922059  0.19354788     0.04500
C397        C  0.86134732  0.29956311  0.16462837    -0.07800
C398        C  0.86046171  0.27412558  0.13785137    -0.08500
C399        C  0.87526484  0.23777818  0.13934598    -0.03100
C400        C  0.89224172  0.22777291  0.16810105     0.03800
N401        N  0.90730059  0.19113539  0.17140110     0.66300
H402        H  0.90605706  0.24454151  0.21676843     0.15200
H403        H  0.84756585  0.28284189  0.11586328     0.14900
N404        N  0.84545830  0.33574004  0.16195877     0.74000
O405        O  0.93658688  0.18763603  0.16523836    -0.39500
O406        O  0.89223497  0.16344342  0.18412002    -0.39400
O407        O  0.85904443  0.36308893  0.14708487    -0.40100
O408        O  0.81602747  0.33778020  0.16787515    -0.40200
C409        C  0.85697890  0.20639102  0.41852846    -0.12500
C410        C  0.87747734  0.21459835  0.44487710     0.04500
C411        C  0.89779904  0.24705332  0.44210994    -0.07800
C412        C  0.89583067  0.27131311  0.41450771    -0.08500
C413        C  0.87483313  0.26355425  0.38858018    -0.03100
C414        C  0.85581935  0.22997608  0.39042209     0.03800
N415        N  0.83461936  0.21975170  0.36430823     0.66300
H416        H  0.84113484  0.18181103  0.41996791     0.15200
H417        H  0.91137568  0.29618503  0.41314869     0.14900
N418        N  0.92008422  0.25657086  0.46743299     0.74000
O419        O  0.84360478  0.19631268  0.34233611    -0.39500
O420        O  0.80569123  0.22917310  0.36612008    -0.39400
O421        O  0.94722631  0.24106638  0.46736300    -0.40100
O422        O  0.91459139  0.28456742  0.48647201    -0.40200
C423        C  0.98834365  0.36723709  0.30213305    -0.12500
C424        C  0.97241202  0.33292153  0.30986310     0.04500
C425        C  0.99059355  0.29955446  0.31635583    -0.07800
C426        C  0.02391172  0.30125646  0.31537671    -0.08500
C427        C  0.03983162  0.33577010  0.30816491    -0.03100
C428        C  0.02161039  0.36882418  0.30063027     0.03800
N429        N  0.03641520  0.40368342  0.28977319     0.66300
H430        H  0.97482354  0.39287846  0.29609775     0.15200
H431        H  0.03740812  0.27557156  0.32131225     0.14900
N432        N  0.97569312  0.26414417  0.32544283     0.74000
O433        O  0.05202390  0.40413523  0.26302973    -0.39500
O434        O  0.03075470  0.43486229  0.30463395    -0.39400
O435        O  0.97739748  0.23551395  0.30635054    -0.40100
O436        O  0.96365307  0.26031798  0.35391356    -0.40200
C437        C  0.78666611  0.10651898  0.13899757    -0.12500
C438        C  0.78468669  0.10658740  0.10419573     0.04500
C439        C  0.75434325  0.10202182  0.08977904    -0.07800
C440        C  0.72697341  0.10135848  0.10990354    -0.08500
C441        C  0.72882361  0.10382061  0.14468075    -0.03100
C442        C  0.75939206  0.10435414  0.15919609     0.03800
N443        N  0.76327955  0.10408039  0.19435888     0.66300
H444        H  0.80969214  0.10888140  0.15084135     0.15200
H445        H  0.70391573  0.10009930  0.09799887     0.14900
N446        N  0.75065430  0.09955732  0.05469919     0.74000
O447        O  0.75698682  0.07392274  0.21046703    -0.39500
O448        O  0.77817639  0.13098657  0.20832567    -0.39400
O449        O  0.75089281  0.06708392  0.04079598    -0.40100
O450        O  0.74300085  0.12901832  0.03831792    -0.40200
C451        C  0.75729135  0.22532156  0.22123224    -0.12500
C452        C  0.72749496  0.23560784  0.23415330     0.04500
C453        C  0.72585867  0.26038453  0.26179565    -0.07800
C454        C  0.75407815  0.27314213  0.27621525    -0.08500
C455        C  0.78390490  0.26288233  0.26326505    -0.03100
C456        C  0.78548585  0.23814994  0.23558435     0.03800
N457        N  0.81513696  0.22623549  0.22123339     0.66300
H458        H  0.75866450  0.20580569  0.20025971     0.15200
H459        H  0.75270721  0.29251517  0.29727546     0.14900
N460        N  0.69613153  0.27242020  0.27596324     0.74000
O461        O  0.83490429  0.20794207  0.23862856    -0.39500
O462        O  0.81802660  0.22540286  0.19013771    -0.39400
O463        O  0.69314001  0.27387536  0.30703342    -0.40100
O464        O  0.67619337  0.28999298  0.25823920    -0.40200
C465        C  0.48841723  0.13507149  0.17730808    -0.12500
C466        C  0.47253771  0.17020240  0.18263674     0.04500
C467        C  0.49102271  0.20333477  0.18925628    -0.07800
C468        C  0.52421728  0.20041921  0.19074977    -0.08500
C469        C  0.54003700  0.16540734  0.18514532    -0.03100
C470        C  0.52162079  0.13234053  0.17851541     0.03800
N471        N  0.53608632  0.09566659  0.17297139     0.66300
H472        H  0.47497610  0.10912806  0.17228581     0.15200
H473        H  0.53776759  0.22628970  0.19574354     0.14900
N474        N  0.47684764  0.24038580  0.19401357     0.74000
O475        O  0.54358160  0.07479198  0.19728786    -0.39500
O476        O  0.53757914  0.08212483  0.14403896    -0.39400
O477        O  0.48349900  0.25953108  0.21958361    -0.40100
O478        O  0.46409615  0.25726730  0.16978473    -0.40200
C479        C  0.25491362  0.11233954  0.08634329    -0.12500
C480        C  0.22565866  0.11190413  0.10324619     0.04500
C481        C  0.22610420  0.10954225  0.13824257    -0.07800
C482        C  0.25516606  0.10938754  0.15533624    -0.08500
C483        C  0.28441168  0.11189805  0.13848977    -0.03100
C484        C  0.28394950  0.11252754  0.10339989     0.03800
N485        N  0.31269295  0.11488158  0.08454997     0.66300
H486        H  0.25538343  0.11444369  0.05953575     0.15200
H487        H  0.25466227  0.10898682  0.18219702     0.14900
N488        N  0.19724790  0.10828965  0.15697497     0.74000
O489        O  0.32726829  0.08452334  0.07658368    -0.39500
O490        O  0.32096639  0.14655487  0.07197836    -0.39400
O491        O  0.18428896  0.07633942  0.16296931    -0.40100
O492        O  0.18747688  0.13810781  0.17162592    -0.40200
C493        C  0.25252584  0.22376428  0.22475127    -0.12500
C494        C  0.28251380  0.24162534  0.22606731     0.04500
C495        C  0.28545088  0.27694188  0.24279688    -0.07800
C496        C  0.25906559  0.29268663  0.25883431    -0.08500
C497        C  0.22927575  0.27428544  0.25829222    -0.03100
C498        C  0.22614998  0.23946767  0.24079641     0.03800
N499        N  0.19645802  0.21968763  0.23883914     0.66300
H500        H  0.24955984  0.19655973  0.21196281     0.15200
H501        H  0.26198989  0.31994490  0.27155042     0.14900
N502        N  0.31501867  0.29702570  0.24417812     0.74000
O503        O  0.18059231  0.22095566  0.21242792    -0.39500
O504        O  0.18900279  0.19578229  0.26103638    -0.39400
O505        O  0.32074937  0.32333317  0.22349834    -0.40100
O506        O  0.33276491  0.29307195  0.26904797    -0.40200
C507        C  0.39626123  0.27639032  0.32759396    -0.12500
C508        C  0.37236079  0.27292480  0.35151635     0.04500
C509        C  0.34960507  0.24322422  0.34806551    -0.07800
C510        C  0.35122639  0.21788162  0.32113278    -0.08500
C511        C  0.37509022  0.22130879  0.29692573    -0.03100
C512        C  0.39793778  0.25110819  0.30061594     0.03800
N513        N  0.42273546  0.25689612  0.27690673     0.66300
H514        H  0.41422954  0.29856482  0.33010410     0.15200
H515        H  0.33293659  0.19610716  0.31866492     0.14900
N516        N  0.32393009  0.23924817  0.37111208     0.74000
O517        O  0.41845484  0.28016556  0.25335926    -0.39500
O518        O  0.45054840  0.24578801  0.28357093    -0.39400
O519        O  0.29918016  0.25939420  0.36773602    -0.40100
O520        O  0.32426293  0.21231336  0.39204142    -0.40200
C521        C  0.39525722  0.25630716  0.04658361    -0.12500
C522        C  0.37583127  0.28942379  0.04648703     0.04500
C523        C  0.35649170  0.29668647  0.07432996    -0.07800
C524        C  0.35635449  0.27085381  0.10090824    -0.08500
C525        C  0.37515897  0.23729071  0.10065549    -0.03100
C526        C  0.39477771  0.23016468  0.07299315     0.03800
N527        N  0.41420675  0.19649637  0.07114503     0.66300
H528        H  0.40997669  0.24948153  0.02524062     0.15200
H529        H  0.34132480  0.27735629  0.12210130     0.14900
N530        N  0.33724283  0.33046543  0.07633427     0.74000
O531        O  0.40243854  0.16536454  0.06090976    -0.39500
O532        O  0.44386726  0.19915525  0.07503140    -0.39400
O533        O  0.30735720  0.32761257  0.07555114    -0.40100
O534        O  0.34975035  0.36186746  0.08478650    -0.40200
C535        C  0.25112110  0.28999747  0.47756901    -0.12500
C536        C  0.28066318  0.27091660  0.47801837     0.04500
C537        C  0.28505973  0.23533973  0.99639797    -0.07800
C538        C  0.25899784  0.22172946  0.01429938    -0.08500
C539        C  0.22920329  0.24015348  0.01277804    -0.03100
C540        C  0.22531334  0.27649548  0.49584839     0.03800
N541        N  0.19632286  0.29806969  0.49561814     0.66300
H542        H  0.24822738  0.31668965  0.46395944     0.15200
H543        H  0.26197696  0.19561437  0.02867786     0.14900
N544        N  0.31447426  0.21484567  0.99832178     0.74000
O545        O  0.18778256  0.31613512  0.52124160    -0.39500
O546        O  0.18178129  0.30356686  0.46876366    -0.39400
O547        O  0.32961051  0.21400626  0.02520293    -0.40100
O548        O  0.32271355  0.19293317  0.97491957    -0.40200
C549        C  0.25606716  0.39624143  0.33417981    -0.12500
C550        C  0.22684569  0.40169931  0.35045961     0.04500
C551        C  0.22718012  0.40801790  0.38505711    -0.07800
C552        C  0.25599924  0.40675040  0.40263428    -0.08500
C553        C  0.28514590  0.39922772  0.38664583    -0.03100
C554        C  0.28485627  0.39453272  0.35172504     0.03800
N555        N  0.31322696  0.38555936  0.33372615     0.66300
H556        H  0.25647511  0.39068713  0.30775147     0.15200
H557        H  0.25532034  0.41063012  0.42926590     0.14900
N558        N  0.19835778  0.41537675  0.40284132     0.74000
O559        O  0.32143822  0.35089012  0.33014719    -0.39500
O560        O  0.32656655  0.41122667  0.31655078    -0.39400
O561        O  0.18892440  0.39206899  0.42470381    -0.40100
O562        O  0.18390589  0.44685008  0.39886405    -0.40200
C563        C  0.72611847  0.24873186  0.01435913    -0.12500
C564        C  0.72738696  0.26105257  0.48341231     0.04500
C565        C  0.75703102  0.26448076  0.46718978    -0.07800
C566        C  0.78455473  0.25319660  0.48371027    -0.08500
C567        C  0.78296483  0.23825036  0.01375811    -0.03100
C568        C  0.75366542  0.23710612  0.03078609     0.03800
N569        N  0.75186524  0.22510435  0.06475732     0.66300
H570        H  0.70365175  0.24994711  0.02799755     0.15200
H571        H  0.80725278  0.25379218  0.47056323     0.14900
N572        N  0.75927116  0.27820635  0.43373367     0.74000
O573        O  0.77237613  0.23643502  0.08527819    -0.39500
O574        O  0.72835852  0.20585732  0.07493492    -0.39400
O575        O  0.78260891  0.29852750  0.42477473    -0.40100
O576        O  0.74020568  0.26601782  0.41213395    -0.40200
C577        C  0.72613078  0.39246989  0.35901494    -0.12500
C578        C  0.72780505  0.39214234  0.39380134     0.04500
C579        C  0.75814023  0.39547796  0.40859133    -0.07800
C580        C  0.78572113  0.39477778  0.38876234    -0.08500
C581        C  0.78406348  0.39300923  0.35398658    -0.03100
C582        C  0.75362598  0.39390682  0.33917119     0.03800
N583        N  0.75007014  0.39507702  0.30400159     0.66300
H584        H  0.70317128  0.39100544  0.34692051     0.15200
H585        H  0.80872541  0.39518464  0.40082466     0.14900
N586        N  0.76149390  0.39886098  0.44368881     0.74000
O587        O  0.73782134  0.36696647  0.28904579    -0.39500
O588        O  0.75405147  0.42643417  0.28882985    -0.39400
O589        O  0.77578043  0.37304429  0.45979647    -0.40100
O590        O  0.75451049  0.43017800  0.45772401    -0.40200
C591        C  0.65091389  0.20142485  0.33067630    -0.12500
C592        C  0.63177087  0.21080628  0.30355691     0.04500
C593        C  0.61298691  0.24474425  0.30541737    -0.07800
C594        C  0.61512694  0.26909945  0.33302571    -0.08500
C595        C  0.63484438  0.26015335  0.35984375    -0.03100
C596        C  0.65232631  0.22511944  0.35875009     0.03800
N597        N  0.67290107  0.21374052  0.38512523     0.66300
H598        H  0.66562228  0.17577623  0.32984946     0.15200
H599        H  0.60091142  0.29516122  0.33354732     0.14900
N600        N  0.59243692  0.25588353  0.27897909     0.74000
O601        O  0.66117810  0.19758388  0.41033618    -0.39500
O602        O  0.70228577  0.21030653  0.37946337    -0.39400
O603        O  0.56500774  0.24145581  0.27695149    -0.40100
O604        O  0.59992134  0.28373976  0.26052789    -0.40200
C605        C  0.65783190  0.29039457  0.07833126    -0.12500
C606        C  0.63657191  0.28348599  0.05231711     0.04500
C607        C  0.61691689  0.25035744  0.05417796    -0.07800
C608        C  0.61935219  0.22506622  0.08105397    -0.08500
C609        C  0.64060684  0.23193950  0.10692849    -0.03100
C610        C  0.66018168  0.26513651  0.10538837     0.03800
N611        N  0.68323637  0.27311364  0.13054472     0.66300
H612        H  0.67369902  0.31496039  0.07711016     0.15200
H613        H  0.60376238  0.20021537  0.08202982     0.14900
N614        N  0.59485719  0.24114693  0.02856249     0.74000
O615        O  0.70371777  0.24811085  0.13821595    -0.39500
O616        O  0.68497416  0.30630911  0.14300464    -0.39400
O617        O  0.60052641  0.21339754  0.00930774    -0.40100
O618        O  0.56785665  0.25699823  0.02821930    -0.40200
C619        C  0.52157362  0.30308431  0.44971947    -0.12500
C620        C  0.53910087  0.33447224  0.43762953     0.04500
C621        C  0.52228328  0.36655117  0.42493235    -0.07800
C622        C  0.48900448  0.36635679  0.42422055    -0.08500
C623        C  0.47148564  0.33482767  0.43597874    -0.03100
C624        C  0.48823473  0.30299024  0.44910272     0.03800
N625        N  0.47419437  0.26591511  0.91661233     0.66300
H626        H  0.53379568  0.27832744  0.46000346     0.15200
H627        H  0.47680488  0.39117291  0.41401571     0.14900
N628        N  0.53850505  0.39943067  0.41206723     0.74000
O629        O  0.46136654  0.26438910  0.88844811    -0.39500
O630        O  0.47692494  0.23562053  0.93356478    -0.39400
O631        O  0.54295134  0.40261033  0.38128510    -0.40100
O632        O  0.54444719  0.42749820  0.43081522    -0.40200
C633        C  0.12462774  0.51423129  0.21494367    -0.12500
C634        C  0.12969978  0.54578075  0.23587510     0.04500
C635        C  0.13153763  0.53909500  0.27049246    -0.07800
C636        C  0.13048170  0.50151082  0.28294347    -0.08500
C637        C  0.12788679  0.46983453  0.26173467    -0.03100
C638        C  0.12369586  0.47661439  0.22744063     0.03800
N639        N  0.11943623  0.44551476  0.20477038     0.66300
H640        H  0.12267756  0.51851863  0.18841269     0.15200
H641        H  0.13367400  0.49707783  0.30932724     0.14900
N642        N  0.13605640  0.56991530  0.29337430     0.74000
O643        O  0.09275431  0.42919798  0.20272281    -0.39500
O644        O  0.14103580  0.43742730  0.18414814    -0.39400
O645        O  0.11223653  0.58658535  0.30591543    -0.40100
O646        O  0.16341827  0.57646304  0.30474400    -0.40200
C647        C  0.88021919  0.50742640  0.21463813    -0.12500
C648        C  0.88026163  0.53901332  0.23608546     0.04500
C649        C  0.88340204  0.53215353  0.27054463    -0.07800
C650        C  0.88324223  0.49438152  0.28285208    -0.08500
C651        C  0.88055140  0.46276157  0.26153634    -0.03100
C652        C  0.88047220  0.46970012  0.22687053     0.03800
N653        N  0.87901964  0.43883898  0.20360355     0.66300
H654        H  0.87816847  0.51189687  0.18813631     0.15200
H655        H  0.88398627  0.48993333  0.30943089     0.14900
N656        N  0.88605136  0.56328594  0.29349022     0.74000
O657        O  0.85337832  0.43217336  0.18856871    -0.39500
O658        O  0.90429219  0.42238308  0.19438367    -0.39400
O659        O  0.86508144  0.56812996  0.31552432    -0.40100
O660        O  0.91076304  0.58380488  0.29362693    -0.40200
C661        C  0.98390405  0.63842358  0.19638202    -0.12500
C662        C  0.96708562  0.67287687  0.19138570     0.04500
C663        C  0.98436885  0.70735883  0.18728375    -0.07800
C664        C  0.01765490  0.70672631  0.18836693    -0.08500
C665        C  0.03448326  0.67216951  0.19281959    -0.03100
C666        C  0.01717622  0.63777527  0.19734478     0.03800
N667        N  0.03292245  0.60212666  0.20393580     0.66300
H668        H  0.97111422  0.61168883  0.20017899     0.15200
H669        H  0.03044419  0.73341905  0.18436704     0.14900
N670        N  0.96865408  0.74289706  0.18017388     0.74000
O671        O  0.04490020  0.59607865  0.23205794    -0.39500
O672        O  0.03161364  0.57513049  0.18314073    -0.39400
O673        O  0.97035747  0.77048103  0.20035448    -0.40100
O674        O  0.95629449  0.74819980  0.15211609    -0.40200
C675        C  0.88599369  0.97161309  0.01772677    -0.12500
C676        C  0.88181245  0.96595455  0.48215035     0.04500
C677        C  0.87869554  0.99884050  0.46206183    -0.07800
C678        C  0.87842884  0.03541953  0.47661582    -0.08500
C679        C  0.88155808  0.04094816  0.01140628    -0.03100
C680        C  0.88618034  0.00841852  0.03173810     0.03800
N681        N  0.88881962  0.01186168  0.06685982     0.66300
H682        H  0.88765324  0.94697351  0.03413985     0.15200
H683        H  0.87428701  0.06008934  0.46073694     0.14900
N684        N  0.87311464  0.99558534  0.42732036     0.74000
O685        O  0.86409653  0.01128330  0.08464152    -0.39500
O686        O  0.91578761  0.00964003  0.08029381    -0.39400
O687        O  0.84521665  0.99861021  0.41624404    -0.40100
O688        O  0.89633351  0.99453149  0.40747822    -0.40200
C689        C  0.89266734  0.73991464  0.31105624    -0.12500
C690        C  0.86934804  0.71108276  0.30807810     0.04500
C691        C  0.84632899  0.70764569  0.33352099    -0.07800
C692        C  0.84683543  0.73293832  0.36059341    -0.08500
C693        C  0.86950270  0.76246609  0.36275328    -0.03100
C694        C  0.89287052  0.76546096  0.33779980     0.03800
N695        N  0.91743437  0.79376933  0.33956220     0.66300
H696        H  0.91066300  0.74349043  0.29197107     0.15200
H697        H  0.82877619  0.73004266  0.37971738     0.14900
N698        N  0.82157825  0.67966578  0.33176795     0.74000
O699        O  0.93959676  0.79001892  0.36028405    -0.39500
O700        O  0.91899786  0.81997031  0.31800632    -0.39400
O701        O  0.82475409  0.64790710  0.34649106    -0.40100
O702        O  0.79485623  0.68893276  0.32009158    -0.40200
C703        C  0.85752637  0.80072790  0.08449680    -0.12500
C704        C  0.87757750  0.79173437  0.05775072     0.04500
C705        C  0.89601517  0.75753996  0.05963849    -0.07800
C706        C  0.89263173  0.73260925  0.08669386    -0.08500
C707        C  0.87158143  0.74084905  0.11269763    -0.03100
C708        C  0.85424801  0.77582553  0.11161123     0.03800
N709        N  0.83201952  0.78576774  0.13706192     0.66300
H710        H  0.84313624  0.82665334  0.08382701     0.15200
H711        H  0.90688673  0.70655491  0.08736989     0.14900
N712        N  0.91753038  0.74675682  0.03378039     0.74000
O713        O  0.83927002  0.81076682  0.15834227    -0.39500
O714        O  0.80379287  0.77370187  0.13549392    -0.39400
O715        O  0.94533228  0.76031711  0.03337421    -0.40100
O716        O  0.91049747  0.71947996  0.01458832    -0.40200
C717        C  0.10895644  0.98175505  0.50818624    -0.12500
C718        C  0.12741043  0.97244611  0.48017153     0.04500
C719        C  0.14704175  0.00078884  0.46608957    -0.07800
C720        C  0.14308814  0.03789094  0.97715936    -0.08500
C721        C  0.12915066  0.04561824  0.00828620    -0.03100
C722        C  0.11215318  0.01583169  0.02415803     0.03800
N723        N  0.09567419  0.02256717  0.05462076     0.66300
H724        H  0.09390683  0.95997421  0.51937258     0.15200
H725        H  0.15676841  0.05986866  0.96446695     0.14900
N726        N  0.16885192  0.99151223  0.44005537     0.74000
O727        O  0.07111351  0.04345531  0.05494231    -0.39500
O728        O  0.10346366  0.00434121  0.08036001    -0.39400
O729        O  0.15363821  0.00932826  0.90693732    -0.40100
O730        O  0.19715067  0.98273220  0.44710019    -0.40200
C731        C  0.15764207  0.73929872  0.35673365    -0.12500
C732        C  0.13665105  0.77083501  0.35825971     0.04500
C733        C  0.11541143  0.77672701  0.33179632    -0.07800
C734        C  0.11547654  0.75149673  0.30484707    -0.08500
C735        C  0.13669969  0.72020224  0.30295425    -0.03100
C736        C  0.15812450  0.71441495  0.32933455     0.03800
N737        N  0.18066921  0.68367874  0.32866866     0.66300
H738        H  0.17422342  0.73417221  0.37678990     0.15200
H739        H  0.09909107  0.75725114  0.28474834     0.14900
N740        N  0.09323398  0.80791130  0.33198797     0.74000
O741        O  0.20835398  0.68961650  0.31768286    -0.39500
O742        O  0.17472238  0.65291493  0.34402077    -0.39400
O743        O  0.09776823  0.83657100  0.31341048    -0.40100
O744        O  0.06751428  0.80499773  0.34796406    -0.40200
C745        C  0.13846897  0.78066124  0.10982330    -0.12500
C746        C  0.12555045  0.74330416  0.10764580     0.04500
C747        C  0.10960895  0.73279450  0.07842745    -0.07800
C748        C  0.10805701  0.75871362  0.05198088    -0.08500
C749        C  0.12232121  0.79534750  0.05361867    -0.03100
C750        C  0.13659992  0.80685936  0.08348116     0.03800
N751        N  0.14850341  0.84517974  0.08773660     0.66300
H752        H  0.14987403  0.78999871  0.13248338     0.15200
H753        H  0.09695142  0.74905079  0.02924504     0.14900
N754        N  0.09525399  0.69581755  0.07488440     0.74000
O755        O  0.13166203  0.87359932  0.07931962    -0.39500
O756        O  0.17366634  0.85089579  0.10391231    -0.39400
O757        O  0.06546811  0.69247948  0.07724540    -0.40100
O758        O  0.11164741  0.66783413  0.06458591    -0.40200
C759        C  0.01903576  0.86235402  0.41788304    -0.12500
C760        C  0.03616752  0.83415496  0.43518586     0.04500
C761        C  0.01911172  0.80479197  0.45170975    -0.07800
C762        C  0.98576010  0.80454075  0.45105274    -0.08500
C763        C  0.96863345  0.83299913  0.43402553    -0.03100
C764        C  0.98574048  0.86176856  0.41678267     0.03800
N765        N  0.96976590  0.88976010  0.39693451     0.66300
H766        H  0.03160428  0.88468267  0.40441781     0.15200
H767        H  0.97318555  0.78231369  0.46463861     0.14900
N768        N  0.03343986  0.76485787  0.95051654     0.74000
O769        O  0.96934271  0.92453992  0.40577552    -0.39500
O770        O  0.95973672  0.88062276  0.36861635    -0.39400
O771        O  0.03812783  0.75616204  0.98042935    -0.40100
O772        O  0.03881742  0.74033982  0.92817194    -0.40200
C773        C  0.37582939  0.50890492  0.03228417    -0.12500
C774        C  0.38040337  0.54111663  0.01209807     0.04500
C775        C  0.38665686  0.53509982  0.97794167    -0.07800
C776        C  0.38707379  0.49817206  0.46654177    -0.08500
C777        C  0.37931595  0.46609886  0.48603459    -0.03100
C778        C  0.37479436  0.47188961  0.52065453     0.03800
N779        N  0.36746573  0.44065440  0.54238238     0.66300
H780        H  0.37086238  0.51269564  0.05846673     0.15200
H781        H  0.39116356  0.49469809  0.44018269     0.14900
N782        N  0.39293741  0.56673745  0.95630975     0.72400
O783        O  0.38964022  0.42091394  0.55473165    -0.39500
O784        O  0.34054784  0.43589438  0.05180517    -0.39400
O785        O  0.42286871  0.58297625  0.46147567    -0.40100
O786        O  0.37223732  0.57719258  0.93563392    -0.40200
C787        C  0.22884329  0.73792249  0.48222657    -0.12500
C788        C  0.22459846  0.77615505  0.49158425     0.04500
C789        C  0.24763255  0.79438768  0.51184111    -0.07800
C790        C  0.27146767  0.77179021  0.02392769    -0.08500
C791        C  0.27825454  0.73557462  0.01102874    -0.03100
C792        C  0.25587260  0.71781850  0.49191413     0.03800
N793        N  0.25989043  0.67919032  0.48057341     0.66300
H794        H  0.21143917  0.72380906  0.46658950     0.15200
H795        H  0.28729255  0.78476269  0.04191781     0.14900
N796        N  0.23538337  0.82550210  0.03195274     0.74000
O797        O  0.24966606  0.65185415  0.98658153    -0.39500
O798        O  0.27482196  0.67286699  0.45398565    -0.39400
O799        O  0.22563920  0.82357757  0.06146665    -0.40100
O800        O  0.26514005  0.85583683  0.52609646    -0.40200
C801        C  0.25070975  0.61702317  0.08452990    -0.12500
C802        C  0.27985344  0.61126825  0.10072352     0.04500
C803        C  0.27934730  0.60537212  0.13536579    -0.07800
C804        C  0.25053622  0.60713192  0.15305547    -0.08500
C805        C  0.22152243  0.61524330  0.13724386    -0.03100
C806        C  0.22186178  0.61934221  0.10228925     0.03800
N807        N  0.19341471  0.62769109  0.08444893     0.66300
H808        H  0.25044490  0.62207714  0.05803378     0.15200
H809        H  0.25120631  0.60352185  0.17970583     0.14900
N810        N  0.30806051  0.59816553  0.15314846     0.74000
O811        O  0.18621605  0.66214568  0.07811740    -0.39500
O812        O  0.17835831  0.60079280  0.07067042    -0.39400
O813        O  0.32041331  0.62446020  0.17030737    -0.40100
O814        O  0.31907529  0.56446312  0.15467527    -0.40200
C815        C  0.63030029  0.46411899  0.02226724    -0.12500
C816        C  0.63068528  0.46040500  0.48711487     0.04500
C817        C  0.62828078  0.49405525  0.46777181    -0.07800
C818        C  0.62648133  0.53021426  0.48320826    -0.08500
C819        C  0.62622530  0.53389585  0.01850560    -0.03100
C820        C  0.62821345  0.50016688  0.03778584     0.03800
N821        N  0.63050688  0.50204246  0.07301319     0.66300
H822        H  0.63320578  0.43886957  0.03774654     0.15200
H823        H  0.62625123  0.55562179  0.46762779     0.14900
N824        N  0.63001549  0.49241589  0.43248307     0.74000
O825        O  0.60582797  0.49835021  0.09056496    -0.39500
O826        O  0.65746507  0.50242431  0.08659757    -0.39400
O827        O  0.60505865  0.49624286  0.41557089    -0.40100
O828        O  0.65676503  0.49242702  0.41823763    -0.40200
C829        C  0.77912574  0.72993408  0.49101433    -0.12500
C830        C  0.78248458  0.76891957  0.49827650     0.04500
C831        C  0.75858848  0.78729957  0.01899143    -0.07800
C832        C  0.73152436  0.76725376  0.02933185    -0.08500
C833        C  0.72647941  0.72949061  0.01910583    -0.03100
C834        C  0.75278100  0.70947316  0.50247840     0.03800
N835        N  0.74998165  0.66990827  0.49342677     0.66300
H836        H  0.79664219  0.71545389  0.47567074     0.15200
H837        H  0.71499518  0.78070621  0.04645553     0.14900
N838        N  0.76444700  0.82454531  0.03282554     0.74000
O839        O  0.73702956  0.66100760  0.46638959    -0.39500
O840        O  0.76502205  0.64468869  0.50949465    -0.39400
O841        O  0.78913449  0.82991922  0.04980279    -0.40100
O842        O  0.74233155  0.84906613  0.03411569    -0.40200
C843        C  0.75235299  0.60329256  0.16170553    -0.12500
C844        C  0.78153627  0.60666355  0.14491042     0.04500
C845        C  0.78118086  0.60638181  0.10982549    -0.07800
C846        C  0.75219207  0.60429166  0.09262850    -0.08500
C847        C  0.72290133  0.60313954  0.10948278    -0.03100
C848        C  0.72337257  0.60176869  0.14456390     0.03800
N849        N  0.69455942  0.60026536  0.16338936     0.66300
H850        H  0.75177332  0.60358568  0.18852340     0.15200
H851        H  0.75263686  0.60578700  0.06583707     0.14900
N852        N  0.80993412  0.60971278  0.09111519     0.74000
O853        O  0.68066209  0.56852053  0.16763729    -0.39500
O854        O  0.68538938  0.62947368  0.17932290    -0.39400
O855        O  0.82403595  0.57978151  0.08124989    -0.40100
O856        O  0.81838979  0.64211605  0.08014857    -0.40200
C857        C  0.48358097  0.64251705  0.08092524    -0.12500
C858        C  0.46858841  0.67291734  0.06400273     0.04500
C859        C  0.48799425  0.70153985  0.04941141    -0.07800
C860        C  0.52122510  0.69920730  0.05203599    -0.08500
C861        C  0.53604216  0.66883323  0.06884474    -0.03100
C862        C  0.51676495  0.64032041  0.08358573     0.03800
N863        N  0.53039728  0.60945467  0.10214319     0.66300
H864        H  0.46941620  0.62028576  0.09266286     0.15200
H865        H  0.53561683  0.72107653  0.04007507     0.14900
N866        N  0.47501359  0.73936974  0.53982376     0.74000
O867        O  0.54096044  0.61558301  0.13084877    -0.39500
O868        O  0.52860742  0.57544699  0.09146637    -0.39400
O869        O  0.46163210  0.75994953  0.04391481    -0.40100
O870        O  0.48442898  0.75121790  0.51194087    -0.40200
C871        C  0.62523752  0.96562917  0.23311112    -0.12500
C872        C  0.62799987  0.96161059  0.26772785     0.04500
C873        C  0.62961656  0.99525786  0.28708843    -0.07800
C874        C  0.63073220  0.03140410  0.27172050    -0.08500
C875        C  0.63033496  0.03537700  0.23696755    -0.03100
C876        C  0.62621132  0.00189741  0.21770719     0.03800
N877        N  0.62471764  0.00387475  0.18243277     0.66300
H878        H  0.62354186  0.94023228  0.21762834     0.15200
H879        H  0.63339863  0.05656323  0.28733082     0.14900
N880        N  0.63287553  0.99324324  0.32222705     0.74000
O881        O  0.64966047  0.99936245  0.16541892    -0.39500
O882        O  0.59804565  0.00486844  0.16827582    -0.39400
O883        O  0.66019729  0.99292859  0.33501377    -0.40100
O884        O  0.60862498  0.99620955  0.34052188    -0.40200
C885        C  0.74667261  0.71258930  0.24094359    -0.12500
C886        C  0.77614816  0.73177637  0.24103660     0.04500
C887        C  0.77922940  0.76591859  0.25949240    -0.07800
C888        C  0.75320994  0.78007965  0.27702647    -0.08500
C889        C  0.72341815  0.76187880  0.27576435    -0.03100
C890        C  0.72053607  0.72703741  0.25830211     0.03800
N891        N  0.69129785  0.70616323  0.25761914     0.66300
H892        H  0.74388271  0.68561292  0.22774573     0.15200
H893        H  0.75611747  0.80684655  0.29051887     0.14900
N894        N  0.80837263  0.78697023  0.26040801     0.74000
O895        O  0.67506871  0.70512868  0.23143878    -0.39500
O896        O  0.68392801  0.68469358  0.28162872    -0.39400
O897        O  0.81538072  0.80922588  0.23681799    -0.40100
O898        O  0.82425752  0.78824140  0.28681037    -0.40200
C899        C  0.72101091  0.88602669  0.39650441    -0.12500
C900        C  0.72158810  0.89242124  0.36211116     0.04500
C901        C  0.75128459  0.90083084  0.34711682    -0.07800
C902        C  0.77930380  0.90041856  0.36609540    -0.08500
C903        C  0.77875844  0.89251624  0.40026560    -0.03100
C904        C  0.74892490  0.88606551  0.41551336     0.03800
N905        N  0.74667021  0.87578540  0.44966581     0.66300
H906        H  0.69871685  0.87928766  0.40881367     0.15200
H907        H  0.80188625  0.90542912  0.35372895     0.14900
N908        N  0.75371741  0.90843776  0.31244082     0.74000
O909        O  0.74726885  0.90177232  0.47142567    -0.39500
O910        O  0.73745021  0.84247356  0.45745823    -0.39400
O911        O  0.74915715  0.94209159  0.30178783    -0.40100
O912        O  0.76485194  0.88312787  0.29325951    -0.40200
C913        C  0.61428376  0.74801946  0.45453597    -0.12500
C914        C  0.63143344  0.71308912  0.45305748     0.04500
C915        C  0.64805235  0.70417950  0.42365191    -0.07800
C916        C  0.64760110  0.73028465  0.39710648    -0.08500
C917        C  0.63057544  0.76525536  0.39867847    -0.03100
C918        C  0.61383328  0.77395450  0.42796926     0.03800
N919        N  0.59619107  0.80888895  0.43123382     0.66300
H920        H  0.60172109  0.75608818  0.47701992     0.15200
H921        H  0.66049035  0.72270082  0.37469613     0.14900
N922        N  0.66496221  0.66860618  0.41999254     0.74000
O923        O  0.56721613  0.80976009  0.42330793    -0.39500
O924        O  0.60827736  0.83714807  0.44614365    -0.39400
O925        O  0.65096611  0.63714520  0.42545114    -0.40100
O926        O  0.69231189  0.66827902  0.40703066    -0.40200
C927        C  0.60827199  0.75860810  0.19670840    -0.12500
C928        C  0.63423573  0.78344829  0.20205767     0.04500
C929        C  0.66073230  0.78070969  0.18044042    -0.07800
C930        C  0.66062466  0.75403472  0.15448062    -0.08500
C931        C  0.63481781  0.72925299  0.14941962    -0.03100
C932        C  0.60844075  0.73163866  0.17087607     0.03800
N933        N  0.58120613  0.70781654  0.16605795     0.66300
H934        H  0.58778674  0.75950079  0.21312240     0.15200
H935        H  0.68107771  0.75267800  0.13801114     0.14900
N936        N  0.68845132  0.80379588  0.18501026     0.74000
O937        O  0.57808907  0.67729715  0.18263449    -0.39500
O938        O  0.55874913  0.71926717  0.14791617    -0.39400
O939        O  0.71399778  0.78839690  0.19458566    -0.40100
O940        O  0.68864866  0.83817318  0.17504045    -0.40200
C941        C  0.37561911  0.03786254  0.26711198    -0.12500
C942        C  0.37828515  0.04215102  0.23248678     0.04500
C943        C  0.38216781  0.00865186  0.21312022    -0.07800
C944        C  0.38083122  0.97222885  0.22815616    -0.08500
C945        C  0.37576737  0.96805328  0.26246670    -0.03100
C946        C  0.37415835  0.00151732  0.28208899     0.03800
N947        N  0.36805347  0.99928164  0.31685322     0.66300
H948        H  0.37287481  0.06298009  0.28278717     0.15200
H949        H  0.38252752  0.94690463  0.21256250     0.14900
N950        N  0.38567728  0.01085732  0.17798932     0.74000
O951        O  0.39037238  0.00456907  0.33710718    -0.39500
O952        O  0.33981526  0.99676437  0.32728418    -0.39400
O953        O  0.41299500  0.00855059  0.16513511    -0.40100
O954        O  0.36141233  0.00969374  0.15975302    -0.40200
C955        C  0.39229331  0.77311875  0.41296606    -0.12500
C956        C  0.36703226  0.77043157  0.39071003     0.04500
C957        C  0.34501673  0.74001791  0.39446220    -0.07800
C958        C  0.34844162  0.71351652  0.42035257    -0.08500
C959        C  0.37332297  0.71661001  0.44326723    -0.03100
C960        C  0.39584246  0.74653151  0.43875856     0.03800
N961        N  0.42265315  0.75039968  0.46001914     0.66300
H962        H  0.41010249  0.79543204  0.40975181     0.15200
H963        H  0.33047218  0.69138417  0.42338530     0.14900
N964        N  0.31801941  0.73691309  0.37324934     0.74000
O965        O  0.44752158  0.73130694  0.45395411    -0.39500
O966        O  0.42363426  0.77776620  0.48047803    -0.39400
O967        O  0.31473115  0.70775032  0.35502414    -0.40100
O968        O  0.29554557  0.76076851  0.37595060    -0.40200
C969        C  0.35072967  0.79975995  0.16770274    -0.12500
C970        C  0.37004497  0.79104115  0.19494925     0.04500
C971        C  0.38910880  0.75726644  0.19330429    -0.07800
C972        C  0.38735920  0.73267637  0.16587518    -0.08500
C973        C  0.36793464  0.74120927  0.13880268    -0.03100
C974        C  0.34992578  0.77579980  0.13966818     0.03800
N975        N  0.33033407  0.78694258  0.11246556     0.66300
H976        H  0.33576952  0.82520893  0.16824607     0.15200
H977        H  0.40209183  0.70702067  0.16549117     0.14900
N978        N  0.41029902  0.74700411  0.21942595     0.74000
O979        O  0.30184874  0.77577159  0.11120273    -0.39500
O980        O  0.34012514  0.81195929  0.09223512    -0.39400
O981        O  0.40394946  0.71866746  0.23779633    -0.40100
O982        O  0.43758475  0.76195695  0.22048004    -0.40200
C983        C  0.48239602  0.86893464  0.31569358    -0.12500
C984        C  0.46546735  0.83428460  0.31277468     0.04500
C985        C  0.48292814  0.79953122  0.31046367    -0.07800
C986        C  0.51628467  0.80028058  0.31086029    -0.08500
C987        C  0.53317384  0.83492759  0.31406764    -0.03100
C988        C  0.51568735  0.86966293  0.31619566     0.03800
N989        N  0.53120666  0.90613166  0.31830078     0.66300
H990        H  0.46972746  0.89608762  0.31722997     0.15200
H991        H  0.52903326  0.77317748  0.30940280     0.14900
N992        N  0.46736749  0.76306282  0.30856784     0.74000
O993        O  0.54330341  0.92095716  0.29267600    -0.39500
O994        O  0.52886620  0.92582977  0.34441769    -0.39400
O995        O  0.47152158  0.74202364  0.28348625    -0.40100
O996        O  0.45436459  0.74911766  0.33408336    -0.40200
C997        C  0.21886039  0.76795843  0.25670403    -0.12500
C998        C  0.22330527  0.74587846  0.22806880     0.04500
C999        C  0.25432124  0.73764149  0.21682337    -0.07800
C1000       C  0.28033539  0.75043669  0.23495130    -0.08500
C1001       C  0.27588288  0.77210886  0.26380079    -0.03100
C1002       C  0.24486190  0.78079087  0.27482875     0.03800
N1003       N  0.23946950  0.80110159  0.30513416     0.66300
H1004       H  0.19513533  0.77295455  0.26641827     0.15200
H1005       H  0.30409581  0.74522069  0.22540925     0.14900
N1006       N  0.25965211  0.71665041  0.18687153     0.74000
O1007       O  0.22271315  0.83121036  0.30522948    -0.39500
O1008       O  0.24655641  0.78537966  0.33226328    -0.39400
O1009       O  0.25196629  0.73120415  0.15942165    -0.40100
O1010       O  0.27504403  0.68552045  0.18751550    -0.40200
C1011       C  0.28079376  0.89335287  0.39068242    -0.12500
C1012       C  0.27958767  0.90233497  0.35671837     0.04500
C1013       C  0.25000772  0.91428353  0.34353022    -0.07800
C1014       C  0.22230240  0.91270258  0.36342355    -0.08500
C1015       C  0.22348032  0.90165103  0.39698244    -0.03100
C1016       C  0.25350307  0.89334100  0.41075110     0.03800
N1017       N  0.25653353  0.88138598  0.44441008     0.66300
H1018       H  0.30309690  0.88459804  0.40182393     0.15200
H1019       H  0.19955814  0.92004785  0.35249450     0.14900
N1020       N  0.24767746  0.92831666  0.31028204     0.74000
O1021       O  0.26683971  0.84809441  0.45069289    -0.39500
O1022       O  0.25583227  0.90629273  0.46709308    -0.39400
O1023       O  0.22616458  0.91597049  0.29139508    -0.40100
O1024       O  0.26381517  0.95718867  0.30155092    -0.40200
O1025       O  0.41404704  0.80616882  0.80698964    -0.82000
C1026       C  0.30808068  0.89362792  0.83521509     0.97400
O1027       O  0.33247935  0.88030252  0.84912534    -0.71100
O1028       O  0.37716478  0.82963327  0.86119133    -0.74700
Al1029     Al  0.37324450  0.87322781  0.83095109     1.49000
C1030       C  0.36599948  0.79567904  0.85981751     0.92600
O1031       O  0.33120113  0.77955149  0.77432375    -0.80900
O1032       O  0.34352106  0.83708257  0.73101898    -0.74500
Al1033     Al  0.37117823  0.79817111  0.79138400     1.90100
O1034       O  0.29966517  0.82910505  0.78166720    -0.73600
O1035       O  0.35740997  0.90591011  0.75723384    -0.73400
O1036       O  0.30810230  0.89807726  0.80397750    -0.79100
O1037       O  0.37212758  0.92229567  0.80743682    -0.77300
O1038       O  0.35817435  0.84601630  0.79762234    -1.13400
O1039       O  0.41584531  0.86812343  0.81626787    -0.72600
C1040       C  0.42998507  0.83646009  0.81199133     0.98100
C1041       C  0.30363168  0.79420761  0.77508931     0.94500
Al1042     Al  0.32966706  0.86630204  0.77050040     1.55600
O1043       O  0.35660614  0.78215096  0.83281577    -0.77200
C1044       C  0.36873771  0.93034027  0.77691333     0.98700
C1045       C  0.36771314  0.81580531  0.72577031     0.93600
O1046       O  0.38679118  0.80961395  0.74899607    -0.82500
O1047       O  0.61321408  0.80172940  0.75541491    -0.82000
C1048       C  0.69177173  0.88527764  0.84243644     0.97400
O1049       O  0.69138388  0.88948195  0.81126894    -0.71100
O1050       O  0.69887601  0.81931112  0.79139244    -0.74700
Al1051     Al  0.67035776  0.85726010  0.77855672     1.49000
C1052       C  0.69472153  0.78432900  0.78509962     0.92600
O1053       O  0.63793391  0.77531167  0.84143754    -0.80900
O1054       O  0.58370993  0.86428912  0.82302090    -0.74500
Al1055     Al  0.62631741  0.79131020  0.79906506     1.90100
O1056       O  0.62015803  0.82480548  0.86927911    -0.73600
O1057       O  0.62904537  0.91606326  0.81346936    -0.73400
O1058       O  0.66724473  0.87276865  0.85688989    -0.79100
O1059       O  0.64388539  0.89729442  0.76383607    -0.77300
O1060       O  0.64065255  0.83869294  0.80525905    -1.13400
O1061       O  0.65776488  0.82788339  0.73961702    -0.72600
C1062       C  0.63359064  0.80752305  0.73313140     0.98100
C1063       C  0.62946329  0.79001323  0.86843316     0.94500
Al1064     Al  0.62609536  0.86741027  0.83815797     1.55600
O1065       O  0.66687198  0.77039553  0.78431341    -0.77200
C1066       C  0.63311555  0.92306926  0.78273465     0.98700
C1067       C  0.56843187  0.83405755  0.81653906     0.93600
O1068       O  0.58306893  0.80255143  0.81217660    -0.82500
O1069       O  0.58856474  0.69788434  0.56536380    -0.82000
C1070       C  0.69303666  0.60975496  0.59157034     0.97400
O1071       O  0.66858914  0.62216113  0.60619688    -0.71100
O1072       O  0.62276883  0.67196344  0.61931547    -0.74700
Al1073     Al  0.62790180  0.62927500  0.58781543     1.49000
C1074       C  0.63470822  0.70555170  0.61927271     0.92600
O1075       O  0.67335857  0.72419307  0.53431008    -0.80900
O1076       O  0.65608890  0.66749187  0.98822417    -0.74500
Al1077     Al  0.63216215  0.70604559  0.55070228     1.90100
O1078       O  0.70282624  0.67250724  0.53823224    -0.73600
O1079       O  0.64299789  0.59905815  0.51363266    -0.73400
O1080       O  0.69234905  0.60450608  0.56038034    -0.79100
O1081       O  0.62954455  0.58012239  0.56339485    -0.77300
O1082       O  0.64377854  0.65753583  0.55519674    -1.13400
O1083       O  0.58589937  0.63527670  0.57224178    -0.72600
C1084       C  0.57222539  0.66735695  0.56855858     0.98100
C1085       C  0.70030157  0.70771205  0.53255256     0.94500
Al1086     Al  0.67165983  0.63720122  0.52735127     1.55600
O1087       O  0.64636358  0.71906142  0.59306922    -0.77200
C1088       C  0.63264444  0.57317233  0.53256353     0.98700
C1089       C  0.63292523  0.69052715  0.98417146     0.93600
O1090       O  0.61497986  0.69845131  0.00813736    -0.82500
O1091       O  0.39008117  0.70179199  0.99732946    -0.82000
C1092       C  0.31101881  0.61819644  0.58388836     0.97400
O1093       O  0.31283598  0.61232580  0.55290374    -0.71100
O1094       O  0.30396430  0.68030589  0.52934168    -0.74700
Al1095     Al  0.33458829  0.64379142  0.51976712     1.49000
C1096       C  0.30732117  0.71521042  0.52257584     0.92600
O1097       O  0.36123529  0.73013059  0.58183693    -0.80900
O1098       O  0.41913265  0.64297262  0.56809996    -0.74500
Al1099     Al  0.37520346  0.71289071  0.54032525     1.90100
O1100       O  0.37969510  0.68248934  0.61148096    -0.73600
O1101       O  0.37594653  0.58828264  0.55833289    -0.73400
O1102       O  0.33460854  0.63198967  0.59885731    -0.79100
O1103       O  0.36328836  0.60495485  0.50767473    -0.77300
O1104       O  0.36217913  0.66510961  0.54728759    -1.13400
O1105       O  0.34762278  0.67293204  0.97954751    -0.72600
C1106       C  0.37100181  0.69516234  0.97425280     0.98100
C1107       C  0.36949016  0.71687374  0.60938609     0.94500
Al1108     Al  0.37626390  0.63835053  0.58155903     1.55600
O1109       O  0.33451190  0.73104307  0.52341623    -0.77200
C1110       C  0.37412475  0.58039285  0.52751999     0.98700
C1111       C  0.43379480  0.67393727  0.56234874     0.93600
O1112       O  0.41835546  0.70427538  0.55558176    -0.82500
O1113       O  0.08654226  0.80440859  0.93885679    -0.82000
C1114       C  0.19291311  0.89057985  0.91487030     0.97400
O1115       O  0.16947828  0.87727227  0.89918503    -0.71100
O1116       O  0.12376340  0.82700309  0.88645282    -0.74700
Al1117     Al  0.12768111  0.87122949  0.91596375     1.49000
C1118       C  0.13501550  0.79312588  0.88820640     0.92600
O1119       O  0.16834532  0.77864243  0.97590747    -0.80900
O1120       O  0.15243431  0.84035993  0.51879067    -0.74500
Al1121     Al  0.12882803  0.79648845  0.95633923     1.90100
O1122       O  0.19843884  0.82995038  0.97372931    -0.73600
O1123       O  0.13807150  0.90605210  0.98914030    -0.73400
O1124       O  0.19096913  0.89577287  0.94608584    -0.79100
O1125       O  0.12887364  0.92173130  0.93763677    -0.77300
O1126       O  0.14135848  0.84459108  0.95060271    -1.13400
O1127       O  0.08468993  0.86665566  0.92991832    -0.72600
C1128       C  0.07056272  0.83496043  0.93454673     0.98100
C1129       C  0.19506177  0.79489552  0.97950220     0.94500
Al1130     Al  0.16716018  0.86643354  0.97951539     1.55600
O1131       O  0.14546453  0.78058930  0.91526080    -0.77200
C1132       C  0.13029612  0.93080479  0.96807892     0.98700
C1133       C  0.12936019  0.81737491  0.52305081     0.93600
O1134       O  0.11272412  0.80767725  0.49870945    -0.82500
O1135       O  0.89330090  0.80541630  0.50182558    -0.82000
C1136       C  0.80848444  0.88750164  0.91912545     0.97400
O1137       O  0.81091993  0.89322261  0.95013038    -0.71100
O1138       O  0.80350576  0.82619737  0.97694381    -0.74700
Al1139     Al  0.83462160  0.86329697  0.98294498     1.49000
C1140       C  0.80753087  0.79120092  0.98311788     0.92600
O1141       O  0.85892283  0.77738133  0.91871997    -0.80900
O1142       O  0.91677049  0.86509699  0.93186092    -0.74500
Al1143     Al  0.87437425  0.79404817  0.95997235     1.90100
O1144       O  0.87805017  0.82509734  0.88962785    -0.73600
O1145       O  0.87312366  0.91866221  0.94092343    -0.73400
O1146       O  0.83185384  0.87411745  0.90317102    -0.79100
O1147       O  0.86355104  0.90280835  0.99236458    -0.77300
O1148       O  0.86089046  0.84181193  0.95398495    -1.13400
O1149       O  0.85237766  0.83684339  0.52104152    -0.72600
C1150       C  0.87602058  0.81492073  0.52588668     0.98100
C1151       C  0.86824232  0.79073762  0.89143413     0.94500
Al1152     Al  0.87388263  0.86870587  0.91909906     1.55600
O1153       O  0.83458636  0.77549394  0.97920326    -0.77200
C1154       C  0.87305460  0.92707607  0.97148553     0.98700
C1155       C  0.93192618  0.83435420  0.93690080     0.93600
O1156       O  0.91700496  0.80330468  0.94279707    -0.82500
O1157       O  0.91648457  0.70461059  0.69565228    -0.82000
C1158       C  0.81155894  0.61703221  0.66469536     0.97400
O1159       O  0.83524525  0.63165971  0.65019933    -0.71100
O1160       O  0.88114321  0.68272891  0.63959700    -0.74700
Al1161     Al  0.87624311  0.63831454  0.66897273     1.49000
C1162       C  0.87082795  0.71706515  0.64149472     0.92600
O1163       O  0.83224814  0.73005963  0.72673989    -0.80900
O1164       O  0.84463745  0.67131663  0.76934370    -0.74500
Al1165     Al  0.87315811  0.71247076  0.71017673     1.90100
O1166       O  0.80179315  0.67991600  0.71893631    -0.73600
O1167       O  0.86089554  0.60446523  0.74216532    -0.73400
O1168       O  0.81239672  0.61164188  0.69576803    -0.79100
O1169       O  0.87525775  0.58840169  0.69176072    -0.77300
O1170       O  0.86069474  0.66473270  0.70278800    -1.13400
O1171       O  0.91824558  0.64292977  0.68437738    -0.72600
C1172       C  0.93227683  0.67414090  0.69041297     0.98100
C1173       C  0.80492698  0.71466344  0.72667229     0.94500
Al1174     Al  0.83238550  0.64320797  0.72947856     1.55600
O1175       O  0.86008360  0.72964003  0.66844452    -0.77200
C1176       C  0.87281843  0.58036060  0.72247142     0.98700
C1177       C  0.86837329  0.69249664  0.77560409     0.93600
O1178       O  0.88771733  0.70040537  0.75283236    -0.82500
O1179       O  0.11594189  0.70102387  0.75079538    -0.82000
C1180       C  0.19248349  0.62131800  0.65900363     0.97400
O1181       O  0.19306152  0.61645142  0.69011359    -0.71100
O1182       O  0.20110533  0.68607307  0.71178366    -0.74700
Al1183     Al  0.17292477  0.64732721  0.72443463     1.49000
C1184       C  0.19625746  0.72072548  0.71898775     0.92600
O1185       O  0.13856747  0.73130200  0.66491977    -0.80900
O1186       O  0.08469322  0.64195530  0.68335829    -0.74500
Al1187     Al  0.12802277  0.71366185  0.70723126     1.90100
O1188       O  0.11981549  0.68270384  0.63668835    -0.73600
O1189       O  0.13000263  0.58969710  0.68985631    -0.73400
O1190       O  0.16742591  0.63391037  0.64575608    -0.79100
O1191       O  0.14697033  0.60686191  0.73900543    -0.77300
O1192       O  0.14238548  0.66665276  0.69927205    -1.13400
O1193       O  0.16112305  0.67506501  0.76475117    -0.72600
C1194       C  0.13669368  0.69457563  0.77243980     0.98100
C1195       C  0.12871180  0.71759796  0.63809403     0.94500
Al1196     Al  0.12671649  0.63901820  0.66638795     1.55600
O1197       O  0.16830706  0.73402492  0.72130997    -0.77200
C1198       C  0.13433757  0.58222658  0.72042591     0.98700
C1199       C  0.06993092  0.67245981  0.69053161     0.93600
O1200       O  0.08489904  0.70347082  0.69507586    -0.82500
O1201       O  0.58944775  0.30222039  0.94185049    -0.82000
C1202       C  0.69822970  0.38548710  0.91257832     0.97400
O1203       O  0.67391242  0.37312201  0.89782355    -0.71100
O1204       O  0.62670776  0.32463901  0.88529142    -0.74700
Al1205     Al  0.63253335  0.36732076  0.91655362     1.49000
C1206       C  0.63610083  0.28987411  0.88649034     0.92600
O1207       O  0.67256938  0.27004912  0.97068431    -0.80900
O1208       O  0.66328493  0.32774243  0.51720091    -0.74500
Al1209     Al  0.63242492  0.29120771  0.95551060     1.90100
O1210       O  0.70532464  0.31841139  0.96296439    -0.73600
O1211       O  0.64986232  0.39661837  0.99102975    -0.73400
O1212       O  0.69755274  0.38909776  0.94376823    -0.79100
O1213       O  0.63492184  0.41568634  0.94159642    -0.77300
O1214       O  0.64694506  0.33842283  0.94934825    -1.13400
O1215       O  0.59005244  0.36410831  0.93160303    -0.72600
C1216       C  0.57481864  0.33363055  0.93730066     0.98100
C1217       C  0.70052556  0.28355094  0.96931022     0.94500
Al1218     Al  0.67651928  0.35660272  0.97618633     1.55600
O1219       O  0.64466180  0.27526982  0.91341137    -0.77200
C1220       C  0.63822103  0.42220014  0.97247557     0.98700
C1221       C  0.63846846  0.30843240  0.52381791     0.93600
O1222       O  0.61835504  0.30306781  0.50141292    -0.82500
O1223       O  0.39044756  0.30665620  0.49387702    -0.82000
C1224       C  0.31516333  0.39093347  0.90634689     0.97400
O1225       O  0.31441686  0.39431036  0.93763247    -0.71100
O1226       O  0.30616404  0.32452747  0.95707102    -0.74700
Al1227     Al  0.33495966  0.36187953  0.97053099     1.49000
C1228       C  0.30986632  0.28980771  0.96438968     0.92600
O1229       O  0.36468299  0.28188727  0.90670964    -0.80900
O1230       O  0.42277010  0.36752820  0.92818087    -0.74500
Al1231     Al  0.37794041  0.29561103  0.94898938     1.90100
O1232       O  0.38621465  0.33051774  0.88022610    -0.73600
O1233       O  0.37830185  0.42118946  0.93781296    -0.73400
O1234       O  0.34042618  0.37996672  0.89250316    -0.79100
O1235       O  0.36106004  0.40131920  0.98608987    -0.77300
O1236       O  0.36479819  0.34362428  0.94395370    -1.13400
O1237       O  0.34591374  0.33311085  0.51007022    -0.72600
C1238       C  0.37019626  0.31257476  0.51629352     0.98100
C1239       C  0.37447925  0.29674982  0.88025716     0.94500
Al1240     Al  0.38075848  0.37283549  0.91210836     1.55600
O1241       O  0.33755936  0.27542922  0.96487938    -0.77200
C1242       C  0.37326207  0.42729892  0.96857252     0.98700
C1243       C  0.43692300  0.33577174  0.93175949     0.93600
O1244       O  0.42110306  0.30498445  0.93470094    -0.82500
O1245       O  0.42192276  0.20191723  0.68420202    -0.82000
C1246       C  0.31451688  0.11783326  0.65758349     0.97400
O1247       O  0.33922596  0.12916675  0.64283976    -0.71100
O1248       O  0.38602088  0.17700416  0.62943869    -0.74700
Al1249     Al  0.38017299  0.13524460  0.66152776     1.49000
C1250       C  0.37498069  0.21106472  0.62955761     0.92600
O1251       O  0.33850846  0.23361036  0.71380490    -0.80900
O1252       O  0.34928608  0.17759604  0.75923423    -0.74500
Al1253     Al  0.37887491  0.21271176  0.69828807     1.90100
O1254       O  0.30689929  0.18429873  0.70785148    -0.73600
O1255       O  0.36277603  0.10818655  0.73616583    -0.73400
O1256       O  0.31484893  0.11422107  0.68885997    -0.79100
O1257       O  0.37742728  0.08716237  0.68729345    -0.77300
O1258       O  0.36522765  0.16497490  0.69363973    -1.13400
O1259       O  0.42231757  0.13944758  0.67689578    -0.72600
C1260       C  0.43710147  0.17058295  0.68121825     0.98100
C1261       C  0.31077462  0.21932341  0.71388431     0.94500
Al1262     Al  0.33595919  0.14715473  0.72097918     1.55600
O1263       O  0.36568363  0.22627847  0.65602458    -0.77200
C1264       C  0.37359098  0.08158343  0.71826567     0.98700
C1265       C  0.37368085  0.19815047  0.76467789     0.93600
O1266       O  0.39322042  0.20395583  0.74163800    -0.82500
O1267       O  0.61697338  0.19512640  0.74969774    -0.82000
C1268       C  0.69825793  0.11193082  0.66463891     0.97400
O1269       O  0.69762921  0.10858743  0.69590293    -0.71100
O1270       O  0.70450211  0.17804988  0.71758232    -0.74700
Al1271     Al  0.67535300  0.13988947  0.72858899     1.49000
C1272       C  0.69997417  0.21297961  0.72387160     0.92600
O1273       O  0.64632701  0.22241073  0.66557396    -0.80900
O1274       O  0.58989555  0.13450601  0.68224672    -0.74500
Al1275     Al  0.63244449  0.20633655  0.70714274     1.90100
O1276       O  0.62805314  0.17366712  0.63694380    -0.73600
O1277       O  0.63414850  0.08152150  0.69228633    -0.73400
O1278       O  0.67391278  0.12410137  0.64982979    -0.79100
O1279       O  0.64860524  0.09972939  0.74193842    -0.77300
O1280       O  0.64667457  0.15883488  0.70112385    -1.13400
O1281       O  0.66064582  0.16850062  0.76745320    -0.72600
C1282       C  0.63597523  0.18873715  0.77291962     0.98100
C1283       C  0.63835092  0.20803041  0.63836607     0.94500
Al1284     Al  0.63256489  0.13048705  0.66786914     1.55600
O1285       O  0.67206793  0.22667902  0.72409969    -0.77200
C1286       C  0.63737084  0.07442146  0.72305655     0.98700
C1287       C  0.57502322  0.16542758  0.68739483     0.93600
O1288       O  0.59009028  0.19645145  0.69182622    -0.82500
O1289       O  0.92155975  0.30350380  0.80394693    -0.82000
C1290       C  0.81401863  0.38863393  0.83389548     0.97400
O1291       O  0.83846544  0.37597987  0.84825029    -0.71100
O1292       O  0.88431393  0.32589167  0.85990658    -0.74700
Al1293     Al  0.87963825  0.36950346  0.82952929     1.49000
C1294       C  0.87438340  0.29135744  0.85831851     0.92600
O1295       O  0.83842323  0.27477445  0.77347496    -0.80900
O1296       O  0.84873086  0.33283852  0.73036787    -0.74500
Al1297     Al  0.87864354  0.29440996  0.78950210     1.90100
O1298       O  0.80626686  0.32347776  0.78132456    -0.73600
O1299       O  0.86244508  0.40110505  0.75582939    -0.73400
O1300       O  0.81447954  0.39299488  0.80276089    -0.79100
O1301       O  0.87798347  0.41867564  0.80534221    -0.77300
O1302       O  0.86476826  0.34181794  0.79633462    -1.13400
O1303       O  0.92231914  0.36517101  0.81466119    -0.72600
C1304       C  0.93696223  0.33408085  0.80917593     0.98100
C1305       C  0.81054779  0.28859364  0.77457551     0.94500
Al1306     Al  0.83554025  0.36138495  0.76964860     1.55600
O1307       O  0.86565406  0.27759911  0.83115559    -0.77200
C1308       C  0.87419847  0.42607874  0.77464724     0.98700
C1309       C  0.87322526  0.31269832  0.72428457     0.93600
O1310       O  0.89307963  0.30663136  0.74682746    -0.82500
O1311       O  0.11722258  0.30744532  0.74844476    -0.82000
C1312       C  0.19742422  0.39277391  0.83145066     0.97400
O1313       O  0.19633601  0.39694925  0.80024132    -0.71100
O1314       O  0.20465620  0.32831923  0.77783131    -0.74700
Al1315     Al  0.17427121  0.36524168  0.76787195     1.49000
C1316       C  0.20117800  0.29351919  0.77071305     0.92600
O1317       O  0.14925736  0.28173730  0.83188950    -0.80900
O1318       O  0.08964845  0.36747996  0.81571951    -0.74500
Al1319     Al  0.13383346  0.29696961  0.79050160     1.90100
O1320       O  0.12880052  0.32965320  0.86015334    -0.73600
O1321       O  0.13245489  0.42192596  0.80545523    -0.73400
O1322       O  0.17349390  0.38000905  0.84668921    -0.79100
O1323       O  0.14624126  0.40431620  0.75537838    -0.77300
O1324       O  0.14663934  0.34506184  0.79596619    -1.13400
O1325       O  0.15944161  0.33655881  0.72940789    -0.72600
C1326       C  0.13523635  0.31548548  0.72459523     0.98100
C1327       C  0.14018235  0.29577252  0.85896382     0.94500
Al1328     Al  0.13218896  0.37281271  0.82948582     1.55600
O1329       O  0.17381758  0.27829396  0.77202817    -0.77200
C1330       C  0.13473808  0.42910485  0.77460463     0.98700
C1331       C  0.07532442  0.33604066  0.81161519     0.93600
O1332       O  0.09102659  0.30528736  0.80710733    -0.82500
O1333       O  0.08888915  0.20627000  0.55430401    -0.82000
C1334       C  0.19577704  0.12072690  0.58430921     0.97400
O1335       O  0.17137578  0.13346067  0.59877099    -0.71100
O1336       O  0.12522529  0.18296636  0.61079081    -0.74700
Al1337     Al  0.13042967  0.14003909  0.57988562     1.49000
C1338       C  0.13530791  0.21740193  0.60949467     0.92600
O1339       O  0.17273920  0.23563781  0.52539563    -0.80900
O1340       O  0.16277884  0.17772334  0.98150145    -0.74500
Al1341     Al  0.13205538  0.21596714  0.54059085     1.90100
O1342       O  0.20416246  0.18642653  0.53374895    -0.73600
O1343       O  0.14808778  0.11069094  0.50570990    -0.73400
O1344       O  0.19535754  0.11643003  0.55316106    -0.79100
O1345       O  0.13224949  0.09131142  0.55487821    -0.77300
O1346       O  0.14560155  0.16839942  0.54705719    -1.13400
O1347       O  0.08830882  0.14455637  0.56494502    -0.72600
C1348       C  0.07361625  0.17558306  0.55971919     0.98100
C1349       C  0.20044126  0.22121897  0.52647672     0.94500
Al1350     Al  0.17514148  0.14932667  0.52053094     1.55600
O1351       O  0.14424954  0.23170098  0.58254649    -0.77200
C1352       C  0.13630437  0.08505723  0.52399860     0.98700
C1353       C  0.13869962  0.19865033  0.97553959     0.93600
O1354       O  0.11884667  0.20487411  0.99821960    -0.82500
O1355       O  0.89283792  0.20060324  0.99858646    -0.82000
C1356       C  0.81331849  0.11474572  0.58496469     0.97400
O1357       O  0.81382474  0.11130275  0.55370557    -0.71100
O1358       O  0.80584478  0.18120740  0.53326725    -0.74700
Al1359     Al  0.83526260  0.14357091  0.52112642     1.49000
C1360       C  0.81021058  0.21614310  0.52710708     0.92600
O1361       O  0.86376607  0.22519603  0.58442071    -0.80900
O1362       O  0.92117123  0.13847563  0.56636302    -0.74500
Al1363     Al  0.87766971  0.21012945  0.54264796     1.90100
O1364       O  0.88345187  0.17660816  0.61220397    -0.73600
O1365       O  0.87727901  0.08554208  0.55654268    -0.73400
O1366       O  0.83761641  0.12716975  0.59964487    -0.79100
O1367       O  0.86242768  0.10402880  0.50703121    -0.77300
O1368       O  0.86406033  0.16244801  0.54834510    -1.13400
O1369       O  0.84919805  0.17385970  0.98098437    -0.72600
C1370       C  0.87355975  0.19459509  0.97553893     0.98100
C1371       C  0.87319331  0.21099210  0.61121831     0.94500
Al1372     Al  0.87875225  0.13393698  0.58121627     1.55600
O1373       O  0.83790281  0.23025752  0.52613802    -0.77200
C1374       C  0.87403584  0.07872794  0.52576766     0.98700
C1375       C  0.93565862  0.16972730  0.56179211     0.93600
O1376       O  0.92022055  0.20059735  0.55763425    -0.82500
C1377       C  0.02271071  0.14120754  0.56957273    -0.12500
C1378       C  0.03826550  0.17547055  0.56063093     0.04500
C1379       C  0.01955057  0.20801583  0.55249244    -0.07800
C1380       C  0.98634224  0.20507723  0.55261097    -0.08500
C1381       C  0.97092249  0.17078328  0.56150934    -0.03100
C1382       C  0.98959545  0.13860821  0.57025682     0.03800
N1383       N  0.97546381  0.10315215  0.58040951     0.66300
H1384       H  0.03633715  0.11589308  0.57638128     0.15200
H1385       H  0.97248012  0.23031124  0.54607427     0.14900
N1386       N  0.03348084  0.24439741  0.54442602     0.74000
O1387       O  0.97090907  0.07688134  0.55944155    -0.39500
O1388       O  0.97169113  0.09614633  0.61081782    -0.39400
O1389       O  0.02498302  0.26016670  0.01481741    -0.40100
O1390       O  0.04755718  0.26324137  0.56666374    -0.40200
C1391       C  0.15437764  0.29945826  0.66802157    -0.12500
C1392       C  0.13112311  0.29484634  0.69266483     0.04500
C1393       C  0.10851492  0.26483976  0.68906527    -0.07800
C1394       C  0.11112124  0.23887640  0.66266806    -0.08500
C1395       C  0.13515831  0.24275877  0.63887572    -0.03100
C1396       C  0.15660548  0.27390946  0.64142359     0.03800
N1397       N  0.18185281  0.27894940  0.61803333     0.66300
H1398       H  0.17216764  0.32186347  0.67023177     0.15200
H1399       H  0.09366445  0.21610122  0.66030208     0.14900
N1400       N  0.08295946  0.25992420  0.71213135     0.74000
O1401       O  0.18073377  0.30626605  0.59750960    -0.39500
O1402       O  0.20697900  0.25934911  0.62069944    -0.39400
O1403       O  0.05945041  0.28248686  0.71137940    -0.40100
O1404       O  0.08193695  0.23038040  0.73024202    -0.40200
C1405       C  0.15951577  0.21482604  0.91922719    -0.12500
C1406       C  0.13647523  0.22070029  0.94398980     0.04500
C1407       C  0.11480114  0.25170569  0.94017768    -0.07800
C1408       C  0.11728022  0.27639663  0.91298678    -0.08500
C1409       C  0.14065679  0.27097269  0.88876314    -0.03100
C1410       C  0.16178691  0.23947974  0.89183806     0.03800
N1411       N  0.18644856  0.23292505  0.86802035     0.66300
H1412       H  0.17670813  0.19172952  0.92164784     0.15200
H1413       H  0.10028005  0.29972455  0.91057276     0.14900
N1414       N  0.09014488  0.25905467  0.96372279     0.74000
O1415       O  0.21045185  0.25462888  0.86730148    -0.39500
O1416       O  0.18595083  0.20310210  0.85026028    -0.39400
O1417       O  0.09513979  0.28229646  0.98710075    -0.40100
O1418       O  0.06195164  0.25007361  0.95658859    -0.40200
C1419       C  0.89410448  0.25594144  0.69403560    -0.12500
C1420       C  0.87585629  0.28996442  0.69338614     0.04500
C1421       C  0.85672070  0.29739220  0.66559398    -0.07800
C1422       C  0.85577331  0.27088046  0.63961416    -0.08500
C1423       C  0.87346762  0.23645935  0.64060811    -0.03100
C1424       C  0.89280632  0.22916357  0.66828167     0.03800
N1425       N  0.91101855  0.19460395  0.67088624     0.66300
H1426       H  0.90853378  0.24900918  0.71543497     0.15200
H1427       H  0.84089581  0.27740346  0.61845127     0.14900
N1428       N  0.83824044  0.33176077  0.66321420     0.74000
O1429       O  0.93972673  0.19424990  0.66173415    -0.39500
O1430       O  0.89972748  0.16610854  0.68625599    -0.39400
O1431       O  0.85020427  0.36123290  0.64993007    -0.40100
O1432       O  0.80871153  0.33059386  0.66872821    -0.40200
C1433       C  0.85813541  0.20710821  0.91679411    -0.12500
C1434       C  0.87700630  0.21667082  0.94408831     0.04500
C1435       C  0.89549558  0.25080492  0.94247387    -0.07800
C1436       C  0.89357300  0.27498482  0.91484548    -0.08500
C1437       C  0.87433883  0.26575319  0.88783763    -0.03100
C1438       C  0.85700013  0.23076868  0.88870658     0.03800
N1439       N  0.83775563  0.21893611  0.86147118     0.66300
H1440       H  0.84367032  0.18127747  0.91740437     0.15200
H1441       H  0.90771784  0.30108282  0.91442452     0.14900
N1442       N  0.91561669  0.26229505  0.96911472     0.74000
O1443       O  0.84874131  0.19556751  0.84044308    -0.39500
O1444       O  0.80880090  0.22833236  0.86046863    -0.39400
O1445       O  0.94403050  0.25065555  0.96994331    -0.40100
O1446       O  0.90687616  0.28903325  0.98819866    -0.40200
C1447       C  0.98854142  0.36523883  0.82305896    -0.12500
C1448       C  0.97238545  0.33351864  0.80979454     0.04500
C1449       C  0.99051516  0.30210006  0.79779559    -0.07800
C1450       C  0.02384663  0.30332067  0.79888365    -0.08500
C1451       C  0.03993113  0.33522225  0.81198036    -0.03100
C1452       C  0.02175457  0.36626471  0.82450610     0.03800
N1453       N  0.03653536  0.39868060  0.83973148     0.66300
H1454       H  0.97528603  0.38948242  0.83295545     0.15200
H1455       H  0.03722593  0.27915818  0.78901268     0.14900
N1456       N  0.97559643  0.26900787  0.78384319     0.74000
O1457       O  0.04008871  0.42945805  0.82360428    -0.39500
O1458       O  0.04243603  0.39808031  0.87032587    -0.39400
O1459       O  0.97373931  0.26560847  0.75281968    -0.40100
O1460       O  0.96861250  0.24084825  0.80216770    -0.40200
C1461       C  0.78582175  0.10461599  0.63950808    -0.12500
C1462       C  0.78391834  0.10617391  0.60473644     0.04500
C1463       C  0.75351410  0.10334084  0.59012982    -0.07800
C1464       C  0.72609845  0.10286620  0.61015178    -0.08500
C1465       C  0.72790127  0.10386096  0.64497301    -0.03100
C1466       C  0.75844778  0.10252276  0.65960039     0.03800
N1467       N  0.76226291  0.09991931  0.69474317     0.66300
H1468       H  0.80890244  0.10547036  0.65139119     0.15200
H1469       H  0.70306487  0.10299748  0.59814406     0.14900
N1470       N  0.74982788  0.10244226  0.55498978     0.74000
O1471       O  0.75288865  0.07018249  0.70978178    -0.39500
O1472       O  0.78003900  0.12342824  0.70957182    -0.39400
O1473       O  0.74651466  0.07060681  0.54046926    -0.40100
O1474       O  0.74521844  0.13325417  0.53923168    -0.40200
C1475       C  0.75795604  0.22151347  0.72611227    -0.12500
C1476       C  0.72763717  0.23574492  0.73439945     0.04500
C1477       C  0.72493459  0.26599446  0.75748525    -0.07800
C1478       C  0.75237777  0.28028584  0.77252094    -0.08500
C1479       C  0.78270649  0.26603661  0.76418531    -0.03100
C1480       C  0.78535459  0.23579623  0.74110787     0.03800
N1481       N  0.81542826  0.21916673  0.73231063     0.66300
H1482       H  0.76033001  0.19832758  0.70880969     0.15200
H1483       H  0.75005623  0.30342684  0.78982859     0.14900
N1484       N  0.69482550  0.28273782  0.76607095     0.74000
O1485       O  0.83142322  0.20175580  0.75405014    -0.39500
O1486       O  0.82242971  0.21441213  0.70218750    -0.39400
O1487       O  0.68797613  0.28856286  0.79608996    -0.40100
O1488       O  0.67862171  0.29928995  0.74401053    -0.40200
C1489       C  0.48823542  0.13432618  0.68397336    -0.12500
C1490       C  0.47244309  0.16999354  0.68275629     0.04500
C1491       C  0.49080716  0.20398579  0.68414454    -0.07800
C1492       C  0.52393790  0.20163458  0.68641113    -0.08500
C1493       C  0.53970911  0.16602017  0.68720144    -0.03100
C1494       C  0.52137119  0.13200132  0.68656674     0.03800
N1495       N  0.53580041  0.09487740  0.68955549     0.66300
H1496       H  0.47474047  0.10776836  0.68367216     0.15200
H1497       H  0.53744629  0.22818078  0.68683461     0.14900
N1498       N  0.47644883  0.24123017  0.68270580     0.74000
O1499       O  0.54706034  0.08424820  0.71699899    -0.39500
O1500       O  0.53390033  0.07109392  0.66607743    -0.39400
O1501       O  0.47854272  0.26353625  0.70721067    -0.40100
O1502       O  0.46697465  0.25425611  0.65530432    -0.40200
C1503       C  0.25483284  0.11197199  0.58642899    -0.12500
C1504       C  0.22562246  0.11327940  0.60341521     0.04500
C1505       C  0.22613175  0.11179324  0.63845026    -0.07800
C1506       C  0.25523261  0.11073886  0.65545336    -0.08500
C1507       C  0.28448527  0.11146717  0.63848617    -0.03100
C1508       C  0.28392635  0.11117215  0.60340285     0.03800
N1509       N  0.31268786  0.11131392  0.58446037     0.66300
H1510       H  0.25527642  0.11321801  0.55959043     0.15200
H1511       H  0.25480533  0.11116500  0.68230830     0.14900
N1512       N  0.19734285  0.11244848  0.65731774     0.74000
O1513       O  0.32727215  0.08018256  0.57918193    -0.39500
O1514       O  0.32115727  0.14144334  0.56944200    -0.39400
O1515       O  0.18408107  0.08123830  0.66520446    -0.40100
O1516       O  0.18801051  0.14347182  0.67032534    -0.40200
C1517       C  0.25271600  0.22357914  0.72283680    -0.12500
C1518       C  0.28273983  0.24120358  0.72522113     0.04500
C1519       C  0.28556014  0.27575111  0.74310721    -0.07800
C1520       C  0.25894971  0.29102917  0.75905171    -0.08500
C1521       C  0.22907035  0.27292043  0.75731689    -0.03100
C1522       C  0.22611785  0.23883997  0.73879378     0.03800
N1523       N  0.19636542  0.21946362  0.73559130     0.66300
H1524       H  0.24986590  0.19695899  0.70914095     0.15200
H1525       H  0.26179711  0.31766316  0.77272570     0.14900
N1526       N  0.31523848  0.29539477  0.74592985     0.74000
O1527       O  0.17988971  0.22447171  0.70992751    -0.39500
O1528       O  0.18963881  0.19225543  0.75504239    -0.39400
O1529       O  0.32068479  0.32430072  0.72791790    -0.40100
O1530       O  0.33305195  0.28858065  0.77028167    -0.40200
C1531       C  0.39862734  0.27460821  0.82714094    -0.12500
C1532       C  0.37368137  0.27260482  0.85006179     0.04500
C1533       C  0.35016802  0.24397356  0.84603678    -0.07800
C1534       C  0.35203048  0.21810565  0.81955943    -0.08500
C1535       C  0.37670458  0.22029824  0.79613375    -0.03100
C1536       C  0.40049881  0.24881610  0.80051001     0.03800
N1537       N  0.42639809  0.25275630  0.77778104     0.66300
H1538       H  0.41726531  0.29579520  0.83031295     0.15200
H1539       H  0.33302942  0.19739167  0.81648235     0.14900
N1540       N  0.32327024  0.24204573  0.86773705     0.74000
O1541       O  0.42692179  0.28072569  0.75788689    -0.39500
O1542       O  0.45081489  0.23200529  0.78106112    -0.39400
O1543       O  0.30089217  0.26597636  0.86468093    -0.40100
O1544       O  0.32019227  0.21400767  0.88731080    -0.40200
C1545       C  0.39783190  0.26326928  0.55066401    -0.12500
C1546       C  0.37267436  0.28985216  0.54741313     0.04500
C1547       C  0.34781051  0.28883290  0.57101776    -0.07800
C1548       C  0.34859147  0.26177481  0.59660281    -0.08500
C1549       C  0.37352543  0.23508195  0.59944707    -0.03100
C1550       C  0.39831527  0.23584749  0.57602307     0.03800
N1551       N  0.42440442  0.20961625  0.57812019     0.66300
H1552       H  0.41720336  0.26278288  0.53246964     0.15200
H1553       H  0.32930531  0.26177683  0.61479053     0.14900
N1554       N  0.32124662  0.31437421  0.56902889     0.74000
O1555       O  0.42264330  0.17730193  0.56408415    -0.39500
O1556       O  0.45074301  0.22093684  0.58928161    -0.39400
O1557       O  0.29438620  0.30166914  0.56060349    -0.40100
O1558       O  0.32365712  0.34828181  0.57979032    -0.40200
C1559       C  0.25205164  0.28703127  0.97527694    -0.12500
C1560       C  0.28190419  0.26879306  0.97703629     0.04500
C1561       C  0.28386723  0.23694389  0.49670757    -0.07800
C1562       C  0.25804163  0.22338569  0.51490652    -0.08500
C1563       C  0.22842811  0.24228658  0.51421897    -0.03100
C1564       C  0.22597627  0.27351899  0.99323034     0.03800
N1565       N  0.19657127  0.29415733  0.99130052     0.66300
H1566       H  0.24909945  0.31312366  0.96086527     0.15200
H1567       H  0.26097140  0.19674682  0.52858943     0.14900
N1568       N  0.31300213  0.21570367  0.49742880     0.74000
O1569       O  0.18657420  0.31250472  0.01620514    -0.39500
O1570       O  0.18344069  0.29920717  0.96360151    -0.39400
O1571       O  0.32812926  0.21235481  0.52418290    -0.40100
O1572       O  0.32116104  0.19589247  0.47264636    -0.40200
C1573       C  0.25680712  0.39613223  0.83355845    -0.12500
C1574       C  0.22752325  0.39998885  0.85005279     0.04500
C1575       C  0.22778510  0.40467899  0.88485380    -0.07800
C1576       C  0.25660312  0.40368762  0.90232315    -0.08500
C1577       C  0.28582210  0.39765116  0.88610053    -0.03100
C1578       C  0.28562917  0.39435150  0.85104256     0.03800
N1579       N  0.31412274  0.38669952  0.83277087     0.66300
H1580       H  0.25727761  0.39175428  0.80698290     0.15200
H1581       H  0.25584506  0.40627676  0.92905756     0.14900
N1582       N  0.19885805  0.40950643  0.90306065     0.74000
O1583       O  0.32341081  0.35242068  0.82921211    -0.39500
O1584       O  0.32605986  0.41273415  0.81489866    -0.39400
O1585       O  0.18919926  0.38314218  0.92204818    -0.40100
O1586       O  0.18468770  0.44149791  0.90271834    -0.40200
C1587       C  0.72584466  0.24607504  0.51557032    -0.12500
C1588       C  0.72744849  0.26142418  0.98148719     0.04500
C1589       C  0.75662038  0.26153005  0.96439707    -0.07800
C1590       C  0.78417543  0.25042979  0.98079050    -0.08500
C1591       C  0.78294741  0.23812022  0.51575541    -0.03100
C1592       C  0.75346528  0.23513085  0.53221769     0.03800
N1593       N  0.75160332  0.22241368  0.56603304     0.66300
H1594       H  0.70315335  0.24553947  0.52873768     0.15200
H1595       H  0.80644335  0.24862077  0.96685468     0.14900
N1596       N  0.75788454  0.26807827  0.92953746     0.74000
O1597       O  0.77253927  0.23251073  0.58658106    -0.39500
O1598       O  0.72754185  0.20419567  0.57619159    -0.39400
O1599       O  0.76927198  0.29911984  0.91861381    -0.40100
O1600       O  0.75657583  0.23936056  0.91056504    -0.40200
C1601       C  0.72638180  0.39701264  0.85854554    -0.12500
C1602       C  0.72792321  0.39387646  0.89324174     0.04500
C1603       C  0.75828268  0.39473602  0.90824803    -0.07800
C1604       C  0.78589525  0.39484483  0.88852074    -0.08500
C1605       C  0.78438106  0.39599252  0.85371723    -0.03100
C1606       C  0.75402569  0.39916196  0.83888827     0.03800
N1607       N  0.75070077  0.40379461  0.80388709     0.66300
H1608       H  0.70342391  0.39747971  0.84640988     0.15200
H1609       H  0.80880092  0.39327562  0.90069559     0.14900
N1610       N  0.76164745  0.39440718  0.94346762     0.74000
O1611       O  0.73622836  0.37871910  0.78719646    -0.39500
O1612       O  0.75755551  0.43562609  0.79068164    -0.39400
O1613       O  0.77250918  0.36502466  0.95785845    -0.40100
O1614       O  0.75851613  0.42532947  0.95946647    -0.40200
C1615       C  0.65700894  0.20868930  0.82764652    -0.12500
C1616       C  0.63234504  0.21053006  0.80447291     0.04500
C1617       C  0.60836987  0.23898743  0.80882326    -0.07800
C1618       C  0.61057004  0.26572404  0.83476643    -0.08500
C1619       C  0.63588231  0.26439772  0.85710867    -0.03100
C1620       C  0.65899590  0.23520574  0.85352266     0.03800
N1621       N  0.68650497  0.23459606  0.87402395     0.66300
H1622       H  0.67612150  0.18797715  0.82461915     0.15200
H1623       H  0.59197922  0.28711280  0.83787602     0.14900
N1624       N  0.58182606  0.24157650  0.78693771     0.74000
O1625       O  0.68901103  0.20976565  0.89665134    -0.39500
O1626       O  0.71026458  0.25461032  0.86592285    -0.39400
O1627       O  0.55857158  0.21907715  0.79057293    -0.40100
O1628       O  0.57979395  0.26929193  0.76688812    -0.40200
C1629       C  0.66017453  0.28901851  0.57896032    -0.12500
C1630       C  0.63557696  0.28663406  0.55559185     0.04500
C1631       C  0.61185761  0.25810337  0.56014042    -0.07800
C1632       C  0.61449002  0.23127467  0.58593240    -0.08500
C1633       C  0.63940523  0.23321791  0.60875067    -0.03100
C1634       C  0.66223480  0.26297988  0.60552218     0.03800
N1635       N  0.68802174  0.26685802  0.62853622     0.66300
H1636       H  0.67867535  0.31021029  0.57589706     0.15200
H1637       H  0.59609617  0.20993124  0.58903764     0.14900
N1638       N  0.58464157  0.25605347  0.53905861     0.74000
O1639       O  0.70409144  0.23787531  0.63717071    -0.39500
O1640       O  0.69608247  0.29972094  0.63870880    -0.39400
O1641       O  0.57917584  0.22586862  0.52274685    -0.40100
O1642       O  0.56412713  0.28256749  0.53977978    -0.40200
C1643       C  0.52283494  0.30050805  0.92992060    -0.12500
C1644       C  0.53952002  0.33432907  0.93736743     0.04500
C1645       C  0.52216503  0.36860803  0.94280808    -0.07800
C1646       C  0.48895954  0.36849865  0.94023442    -0.08500
C1647       C  0.47224652  0.33471902  0.93261618    -0.03100
C1648       C  0.48963258  0.30046755  0.92701847     0.03800
N1649       N  0.47185737  0.27078691  0.46292937     0.66300
H1650       H  0.53576318  0.27409297  0.92491830     0.15200
H1651       H  0.47610633  0.39500853  0.94506017     0.14900
N1652       N  0.53775414  0.40349333  0.95208501     0.74000
O1653       O  0.46631093  0.24178574  0.44513268    -0.39500
O1654       O  0.46833835  0.26846670  0.49388758    -0.39400
O1655       O  0.53633364  0.43254985  0.93343329    -0.40100
O1656       O  0.55010118  0.40649119  0.98038734    -0.40200
C1657       C  0.12568535  0.51162763  0.71337408    -0.12500
C1658       C  0.12717002  0.54352144  0.73448189     0.04500
C1659       C  0.12553042  0.53716888  0.76913864    -0.07800
C1660       C  0.12564974  0.49961571  0.78182301    -0.08500
C1661       C  0.12688576  0.46769626  0.76071550    -0.03100
C1662       C  0.12520165  0.47405362  0.72603108     0.03800
N1663       N  0.12394726  0.44265667  0.70319661     0.66300
H1664       H  0.12622105  0.51572079  0.68674947     0.15200
H1665       H  0.12631667  0.49556572  0.80844500     0.14900
N1666       N  0.12462737  0.56856580  0.79192932     0.74000
O1667       O  0.09939085  0.42194264  0.70174499    -0.39500
O1668       O  0.14618169  0.43762523  0.68258010    -0.39400
O1669       O  0.09859914  0.58530325  0.79788990    -0.40100
O1670       O  0.14863664  0.57593517  0.80942937    -0.40200
C1671       C  0.88045765  0.50994271  0.71390402    -0.12500
C1672       C  0.88088723  0.54143570  0.73545877     0.04500
C1673       C  0.88420182  0.53438015  0.76986613    -0.07800
C1674       C  0.88391538  0.49654658  0.78202950    -0.08500
C1675       C  0.88084555  0.46504408  0.76064395    -0.03100
C1676       C  0.88044980  0.47215209  0.72600469     0.03800
N1677       N  0.87837982  0.44144228  0.70264185     0.66300
H1678       H  0.87819734  0.51455178  0.68744544     0.15200
H1679       H  0.88484133  0.49196790  0.80857875     0.14900
N1680       N  0.88695178  0.56536343  0.79294984     0.74000
O1681       O  0.85209764  0.43417373  0.68907629    -0.39500
O1682       O  0.90348993  0.42638373  0.69138779    -0.39400
O1683       O  0.86666384  0.56923427  0.81579606    -0.40100
O1684       O  0.91112085  0.58680233  0.79229207    -0.40200
C1685       C  0.98385018  0.63988655  0.69630250    -0.12500
C1686       C  0.96748924  0.67462276  0.69113464     0.04500
C1687       C  0.98514641  0.70881126  0.68710020    -0.07800
C1688       C  0.01839280  0.70753578  0.68795134    -0.08500
C1689       C  0.03474587  0.67266624  0.69248936    -0.03100
C1690       C  0.01707687  0.63865267  0.69739910     0.03800
N1691       N  0.03239407  0.60292250  0.70478572     0.66300
H1692       H  0.97072796  0.61343368  0.70028975     0.15200
H1693       H  0.03150701  0.73397679  0.68389380     0.14900
N1694       N  0.96984485  0.74474005  0.68053681     0.74000
O1695       O  0.04597447  0.59837425  0.73231933    -0.39500
O1696       O  0.02896553  0.57452004  0.68572372    -0.39400
O1697       O  0.97057086  0.77121237  0.70185934    -0.40100
O1698       O  0.95902385  0.75161379  0.65204418    -0.40200
C1699       C  0.88799191  0.97104167  0.51612392    -0.12500
C1700       C  0.88145421  0.96614902  0.98354439     0.04500
C1701       C  0.88060100  0.99876497  0.96281678    -0.07800
C1702       C  0.88038401  0.03560443  0.97685129    -0.08500
C1703       C  0.88132760  0.04030327  0.51115063    -0.03100
C1704       C  0.88781630  0.00760607  0.53070177     0.03800
N1705       N  0.89216322  0.01054483  0.56566715     0.66300
H1706       H  0.89122629  0.94617187  0.53201749     0.15200
H1707       H  0.87790060  0.06018038  0.96049048     0.14900
N1708       N  0.87782498  0.99508886  0.92772057     0.74000
O1709       O  0.86837989  0.00881577  0.58473793    -0.39500
O1710       O  0.91979297  0.00848592  0.57758625    -0.39400
O1711       O  0.85158950  0.00184423  0.91382712    -0.40100
O1712       O  0.90237837  0.98953152  0.91031953    -0.40200
C1713       C  0.89002435  0.74698059  0.80810516    -0.12500
C1714       C  0.87097902  0.71372366  0.80744606     0.04500
C1715       C  0.85147612  0.70574239  0.83509561    -0.07800
C1716       C  0.85087573  0.73113949  0.86207016    -0.08500
C1717       C  0.86904575  0.76509190  0.86205003    -0.03100
C1718       C  0.88897869  0.77267036  0.83466508     0.03800
N1719       N  0.90817323  0.80649773  0.83317567     0.66300
H1720       H  0.90498718  0.75429818  0.78707033     0.15200
H1721       H  0.83564971  0.72440921  0.88305232     0.14900
N1722       N  0.83199210  0.67218624  0.83615331     0.74000
O1723       O  0.93632510  0.80566008  0.84382003    -0.39500
O1724       O  0.89837171  0.83564103  0.81762420    -0.39400
O1725       O  0.84295091  0.64148077  0.84823306    -0.40100
O1726       O  0.80261483  0.67495105  0.83040450    -0.40200
C1727       C  0.85798362  0.80256724  0.58377759    -0.12500
C1728       C  0.87988699  0.79493708  0.55831744     0.04500
C1729       C  0.90031934  0.76268654  0.56178714    -0.07800
C1730       C  0.89634802  0.73731567  0.58846267    -0.08500
C1731       C  0.87317079  0.74381964  0.61284593    -0.03100
C1732       C  0.85448744  0.77765620  0.61079109     0.03800
N1733       N  0.83071080  0.78626912  0.63505759     0.66300
H1734       H  0.84222065  0.82731606  0.58205236     0.15200
H1735       H  0.91201156  0.71248414  0.59035064     0.14900
N1736       N  0.92488144  0.75478050  0.53817785     0.74000
O1737       O  0.83666186  0.81004478  0.65777682    -0.39500
O1738       O  0.80251226  0.77511009  0.63069519    -0.39400
O1739       O  0.95011003  0.77435832  0.53844155    -0.40100
O1740       O  0.92313330  0.72537302  0.52000614    -0.40200
C1741       C  0.11130733  0.97888658  0.00986933    -0.12500
C1742       C  0.12648168  0.97110418  0.97945375     0.04500
C1743       C  0.14226302  0.00122154  0.96297957    -0.07800
C1744       C  0.14828413  0.03736680  0.48015581    -0.08500
C1745       C  0.13047005  0.04684312  0.50858745    -0.03100
C1746       C  0.10985419  0.01890870  0.52210100     0.03800
N1747       N  0.08929733  0.02806743  0.54925380     0.66300
H1748       H  0.09914188  0.95588581  0.02290476     0.15200
H1749       H  0.16481483  0.05794042  0.46955267     0.14900
N1750       N  0.16112265  0.99397095  0.93410950     0.74000
O1751       O  0.06741060  0.05252733  0.54549025    -0.39500
O1752       O  0.09058116  0.00871811  0.57563861    -0.39400
O1753       O  0.16171193  0.99912133  0.41047218    -0.40100
O1754       O  0.18831343  0.97906566  0.93725605    -0.40200
C1755       C  0.15743833  0.73754841  0.85655567    -0.12500
C1756       C  0.13452147  0.76689805  0.85923013     0.04500
C1757       C  0.11053693  0.76930214  0.83504718    -0.07800
C1758       C  0.11078517  0.74392320  0.80816570    -0.08500
C1759       C  0.13439374  0.71541545  0.80462396    -0.03100
C1760       C  0.15760714  0.71198552  0.82966113     0.03800
N1761       N  0.18172433  0.68308018  0.82805726     0.66300
H1762       H  0.17572115  0.73471595  0.87530247     0.15200
H1763       H  0.09244756  0.74718019  0.78954430     0.14900
N1764       N  0.08512634  0.79651106  0.83793557     0.74000
O1765       O  0.20907817  0.69153922  0.81742575    -0.39500
O1766       O  0.17718781  0.65103192  0.84191357    -0.39400
O1767       O  0.08076067  0.82112708  0.81544953    -0.40100
O1768       O  0.06470043  0.79279588  0.86067189    -0.40200
C1769       C  0.14211365  0.77994969  0.61055426    -0.12500
C1770       C  0.12698133  0.74382964  0.60893069     0.04500
C1771       C  0.10910505  0.73506431  0.58052488    -0.07800
C1772       C  0.10825799  0.76099694  0.55401218    -0.08500
C1773       C  0.12470464  0.79632567  0.55490291    -0.03100
C1774       C  0.14068144  0.80650968  0.58432312     0.03800
N1775       N  0.15475707  0.84381476  0.58838760     0.66300
H1776       H  0.15492047  0.78799867  0.63275353     0.15200
H1777       H  0.09554668  0.75241859  0.53189235     0.14900
N1778       N  0.09144689  0.70012252  0.57817870     0.74000
O1779       O  0.13981828  0.87348005  0.57928783    -0.39500
O1780       O  0.17956145  0.84769207  0.60555804    -0.39400
O1781       O  0.06232073  0.69982689  0.58576473    -0.40100
O1782       O  0.10378677  0.67103165  0.56458300    -0.40200
C1783       C  0.01810225  0.86730622  0.92684956    -0.12500
C1784       C  0.03510122  0.83370417  0.93450489     0.04500
C1785       C  0.01772610  0.80006033  0.94243852    -0.07800
C1786       C  0.98437011  0.80087101  0.94292161    -0.08500
C1787       C  0.96739902  0.83464307  0.93560694    -0.03100
C1788       C  0.98483441  0.86815579  0.92732499     0.03800
N1789       N  0.96929132  0.90351284  0.91932631     0.66300
H1790       H  0.03069501  0.89351907  0.92052311     0.15200
H1791       H  0.97170562  0.77473718  0.94933556     0.14900
N1792       N  0.03517601  0.77597217  0.47054204     0.74000
O1793       O  0.96344223  0.92765811  0.94184983    -0.39500
O1794       O  0.96542667  0.91280964  0.88941758    -0.39400
O1795       O  0.03855589  0.78034785  0.50132587    -0.40100
O1796       O  0.04137641  0.74384225  0.45753428    -0.40200
C1797       C  0.37585109  0.50904127  0.53420339    -0.12500
C1798       C  0.38135815  0.54125598  0.51425475     0.04500
C1799       C  0.38832216  0.53531524  0.48025245    -0.07800
C1800       C  0.38603852  0.49779942  0.96450781    -0.08500
C1801       C  0.37929503  0.46567365  0.98433515    -0.03100
C1802       C  0.37513344  0.47166650  0.01894387     0.03800
N1803       N  0.36843967  0.44051082  0.04090766     0.66300
H1804       H  0.37041101  0.51282437  0.56028043     0.15200
H1805       H  0.38965941  0.49423888  0.93807913     0.14900
N1806       N  0.39609170  0.56693627  0.45910359     0.72400
O1807       O  0.39102162  0.42134384  0.05312121    -0.39500
O1808       O  0.33934993  0.43613273  0.55266435    -0.39400
O1809       O  0.42048907  0.58094480  0.95498043    -0.40100
O1810       O  0.37747578  0.57653543  0.43610592    -0.40200
C1811       C  0.22937116  0.73748147  0.97910322    -0.12500
C1812       C  0.22273042  0.77386533  0.99172290     0.04500
C1813       C  0.24354839  0.79075767  0.01503939    -0.07800
C1814       C  0.27513527  0.77446065  0.52070022    -0.08500
C1815       C  0.27926021  0.73625463  0.51134688    -0.03100
C1816       C  0.25683216  0.71810129  0.98865676     0.03800
N1817       N  0.26313626  0.68115042  0.97462232     0.66300
H1818       H  0.21350491  0.72436372  0.96122796     0.15200
H1819       H  0.29268087  0.78828797  0.53635547     0.14900
N1820       N  0.24255997  0.83199519  0.52541754     0.74000
O1821       O  0.24409820  0.65246235  0.49384537    -0.39500
O1822       O  0.27660549  0.67889296  0.94674305    -0.39400
O1823       O  0.21819708  0.83828508  0.54289856    -0.40100
O1824       O  0.24539394  0.85720783  0.02102230    -0.40200
C1825       C  0.25139961  0.61634659  0.58606645    -0.12500
C1826       C  0.28056964  0.61162647  0.60244153     0.04500
C1827       C  0.27997155  0.60594190  0.63711988    -0.07800
C1828       C  0.25099591  0.60704105  0.65462924    -0.08500
C1829       C  0.22191530  0.61417501  0.63857721    -0.03100
C1830       C  0.22240347  0.61787068  0.60359670     0.03800
N1831       N  0.19384297  0.62459506  0.58545119     0.66300
H1832       H  0.25115712  0.62098368  0.55947975     0.15200
H1833       H  0.25154759  0.60368480  0.68133899     0.14900
N1834       N  0.30869723  0.59931147  0.65505056     0.74000
O1835       O  0.18611869  0.65847565  0.57766434    -0.39500
O1836       O  0.17903167  0.59659763  0.57307166    -0.39400
O1837       O  0.32091987  0.62602237  0.67182713    -0.40100
O1838       O  0.31990464  0.56573559  0.65704323    -0.40200
C1839       C  0.62873797  0.46416127  0.52186025    -0.12500
C1840       C  0.63040197  0.46043868  0.98748499     0.04500
C1841       C  0.62561121  0.49392466  0.96833861    -0.07800
C1842       C  0.62356723  0.52997108  0.98388567    -0.08500
C1843       C  0.62710743  0.53413757  0.51798356    -0.03100
C1844       C  0.62689006  0.50032400  0.53729554     0.03800
N1845       N  0.62692318  0.50209657  0.57261829     0.66300
H1846       H  0.62988728  0.43879383  0.53744005     0.15200
H1847       H  0.62153522  0.55537635  0.96843187     0.14900
N1848       N  0.62486298  0.49235298  0.93301009     0.74000
O1849       O  0.60096242  0.50073058  0.58831532    -0.39500
O1850       O  0.65283085  0.49982868  0.58814112    -0.39400
O1851       O  0.59878906  0.49652034  0.91808873    -0.40100
O1852       O  0.65055035  0.49302721  0.91678461    -0.40200
C1853       C  0.77545392  0.73180137  0.98675820    -0.12500
C1854       C  0.78046232  0.76964926  0.99682517     0.04500
C1855       C  0.75949801  0.78736381  0.51870206    -0.07800
C1856       C  0.73251418  0.76715590  0.52906988    -0.08500
C1857       C  0.72890101  0.72836233  0.52131886    -0.03100
C1858       C  0.74864430  0.71170264  0.99749379     0.03800
N1859       N  0.74316670  0.67411836  0.98445496     0.66300
H1860       H  0.79181476  0.71822463  0.96952732     0.15200
H1861       H  0.71488145  0.78140350  0.54442440     0.14900
N1862       N  0.76414407  0.82562819  0.53096585     0.74000
O1863       O  0.72562848  0.67010090  0.95943674    -0.39500
O1864       O  0.75964683  0.64612576  0.99446424    -0.39400
O1865       O  0.78898725  0.83331994  0.54701564    -0.40100
O1866       O  0.74100314  0.84872567  0.53229428    -0.40200
C1867       C  0.75271807  0.60836714  0.66282023    -0.12500
C1868       C  0.78188917  0.60841963  0.64582309     0.04500
C1869       C  0.78147219  0.60440270  0.61096205    -0.07800
C1870       C  0.75237592  0.60198735  0.59398483    -0.08500
C1871       C  0.72310959  0.60430042  0.61084787    -0.03100
C1872       C  0.72367508  0.60678236  0.64590677     0.03800
N1873       N  0.69500853  0.60978281  0.66483654     0.66300
H1874       H  0.75225907  0.61176147  0.68950589     0.15200
H1875       H  0.75279435  0.60023526  0.56719747     0.14900
N1876       N  0.81034868  0.60371433  0.59224892     0.74000
O1877       O  0.68245528  0.57986998  0.67671740    -0.39500
O1878       O  0.68545397  0.64238428  0.67433376    -0.39400
O1879       O  0.82349810  0.57197054  0.58574551    -0.40100
O1880       O  0.81988216  0.63388705  0.57800439    -0.40200
C1881       C  0.48452155  0.64150580  0.57776664    -0.12500
C1882       C  0.46929632  0.67407833  0.56445960     0.04500
C1883       C  0.48851807  0.70498026  0.55327320    -0.07800
C1884       C  0.52182416  0.70207818  0.55491690    -0.08500
C1885       C  0.53684312  0.66939525  0.56804083    -0.03100
C1886       C  0.51766331  0.63903783  0.57993138     0.03800
N1887       N  0.53131964  0.60583300  0.59518932     0.66300
H1888       H  0.47058650  0.61758686  0.58707950     0.15200
H1889       H  0.53608546  0.72580029  0.54575703     0.14900
N1890       N  0.47482946  0.73173757  0.02981720     0.74000
O1891       O  0.53880136  0.60680920  0.62539471    -0.39500
O1892       O  0.53208715  0.57429696  0.57978661    -0.39400
O1893       O  0.46047689  0.76234000  0.55875297    -0.40100
O1894       O  0.48390745  0.73514410  0.00017976    -0.40200
C1895       C  0.62464302  0.96625492  0.73391439    -0.12500
C1896       C  0.62789209  0.96216219  0.76847120     0.04500
C1897       C  0.63006543  0.99572056  0.78787362    -0.07800
C1898       C  0.63085811  0.03189822  0.77254712    -0.08500
C1899       C  0.63014425  0.03590615  0.73779197    -0.03100
C1900       C  0.62583367  0.00249023  0.71852231     0.03800
N1901       N  0.62473361  0.00442689  0.68322728     0.66300
H1902       H  0.62267048  0.94089759  0.71842012     0.15200
H1903       H  0.63383763  0.05701168  0.78814594     0.14900
N1904       N  0.63455117  0.99356799  0.82286931     0.74000
O1905       O  0.65020808  0.00313199  0.66666558    -0.39500
O1906       O  0.59837788  0.00195560  0.66858880    -0.39400
O1907       O  0.66210904  0.98868839  0.83439564    -0.40100
O1908       O  0.61184415  0.00153753  0.84217799    -0.40200
C1909       C  0.74676314  0.71768057  0.73537258    -0.12500
C1910       C  0.77674909  0.73479127  0.73987907     0.04500
C1911       C  0.77959714  0.76580468  0.76216433    -0.07800
C1912       C  0.75283640  0.77853439  0.77939994    -0.08500
C1913       C  0.72273666  0.76225026  0.77412559    -0.03100
C1914       C  0.71997172  0.73070878  0.75249983     0.03800
N1915       N  0.69024480  0.71175917  0.74743713     0.66300
H1916       H  0.74414564  0.69308846  0.71899259     0.15200
H1917       H  0.75545680  0.80286653  0.79607153     0.14900
N1918       N  0.80927494  0.78480444  0.76768366     0.74000
O1919       O  0.67785260  0.71156245  0.71906313    -0.39500
O1920       O  0.67923050  0.69002684  0.76970401    -0.39400
O1921       O  0.82126329  0.80508899  0.74494413    -0.40100
O1922       O  0.81976036  0.78799820  0.79677238    -0.40200
C1923       C  0.72027680  0.88810119  0.89682323    -0.12500
C1924       C  0.72125375  0.89302331  0.86222780     0.04500
C1925       C  0.75106853  0.90106821  0.84739225    -0.07800
C1926       C  0.77885022  0.90150988  0.86671681    -0.08500
C1927       C  0.77797960  0.89469262  0.90107558    -0.03100
C1928       C  0.74797711  0.88904338  0.91621042     0.03800
N1929       N  0.74530791  0.88082658  0.95077828     0.66300
H1930       H  0.69783342  0.88201507  0.90904191     0.15200
H1931       H  0.80153271  0.90597136  0.85444132     0.14900
N1932       N  0.75392850  0.90713489  0.81252837     0.74000
O1933       O  0.74844740  0.90760636  0.97156077    -0.39500
O1934       O  0.73398870  0.84899702  0.96004023    -0.39400
O1935       O  0.75272085  0.94085658  0.80108482    -0.40100
O1936       O  0.76261471  0.87985646  0.79400219    -0.40200
C1937       C  0.61777468  0.75144486  0.95624867    -0.12500
C1938       C  0.62944968  0.71355932  0.95335607     0.04500
C1939       C  0.64121619  0.70124976  0.92246975    -0.07800
C1940       C  0.64145882  0.72689658  0.89559309    -0.08500
C1941       C  0.62980336  0.76490092  0.89845583    -0.03100
C1942       C  0.61792524  0.77698975  0.92942207     0.03800
N1943       N  0.60639559  0.81522465  0.93433854     0.66300
H1944       H  0.60930273  0.76198341  0.98001006     0.15200
H1945       H  0.65044474  0.71653125  0.87199370     0.14900
N1946       N  0.65193563  0.66254700  0.91767341     0.74000
O1947       O  0.57742103  0.82272537  0.92954203    -0.39500
O1948       O  0.62401221  0.83998957  0.94779210    -0.39400
O1949       O  0.63333302  0.63489468  0.92347832    -0.40100
O1950       O  0.67821689  0.65612516  0.90353853    -0.40200
C1951       C  0.60938467  0.75477992  0.69959097    -0.12500
C1952       C  0.63159456  0.78505311  0.70173043     0.04500
C1953       C  0.65477157  0.78838500  0.67650635    -0.07800
C1954       C  0.65576222  0.76153690  0.65067866    -0.08500
C1955       C  0.63399078  0.73092721  0.64891919    -0.03100
C1956       C  0.61048633  0.72784682  0.67373212     0.03800
N1957       N  0.58732330  0.69787178  0.67288408     0.66300
H1958       H  0.59152875  0.75103866  0.71878128     0.15200
H1959       H  0.67387883  0.76481754  0.63167170     0.14900
N1960       N  0.67786096  0.81847676  0.67691360     0.74000
O1961       O  0.59135346  0.66790313  0.68997801    -0.39500
O1962       O  0.56118617  0.70330755  0.65838099    -0.39400
O1963       O  0.70672837  0.81067365  0.68207527    -0.40100
O1964       O  0.66991836  0.85223524  0.66898904    -0.40200
C1965       C  0.36907767  0.03864627  0.76753313    -0.12500
C1966       C  0.37865288  0.04328462  0.73424302     0.04500
C1967       C  0.38915747  0.01049379  0.71674307    -0.07800
C1968       C  0.38719273  0.97398550  0.73158317    -0.08500
C1969       C  0.37555017  0.96940301  0.76404799    -0.03100
C1970       C  0.36716358  0.00234567  0.78232460     0.03800
N1971       N  0.35324786  0.99915823  0.81456932     0.66300
H1972       H  0.36087496  0.06316652  0.78183232     0.15200
H1973       H  0.39417808  0.94886506  0.71733529     0.14900
N1974       N  0.40139806  0.01361889  0.68383674     0.74000
O1975       O  0.36755330  0.01267525  0.83934542    -0.39500
O1976       O  0.32480201  0.98821006  0.81755785    -0.39400
O1977       O  0.43027569  0.02195902  0.67932898    -0.40100
O1978       O  0.38459411  0.00335737  0.65961030    -0.40200
C1979       C  0.38929606  0.77620272  0.91331819    -0.12500
C1980       C  0.36635466  0.77006050  0.88910105     0.04500
C1981       C  0.34684103  0.73704945  0.89146241    -0.07800
C1982       C  0.35040614  0.71156495  0.91810858    -0.08500
C1983       C  0.37277189  0.71833063  0.94317391    -0.03100
C1984       C  0.39283351  0.75104144  0.94004093     0.03800
N1985       N  0.41705260  0.75983026  0.96349806     0.66300
H1986       H  0.40511140  0.80077355  0.91137722     0.15200
H1987       H  0.33459537  0.68700492  0.91977913     0.14900
N1988       N  0.32231008  0.72988181  0.86786004     0.74000
O1989       O  0.44529948  0.76256291  0.95317411    -0.39500
O1990       O  0.40940791  0.77703123  0.98984323    -0.39400
O1991       O  0.32328802  0.70003006  0.85015079    -0.40100
O1992       O  0.29780617  0.75082754  0.86760083    -0.40200
C1993       C  0.35250391  0.80223838  0.66690722    -0.12500
C1994       C  0.37112480  0.79306164  0.69454035     0.04500
C1995       C  0.38928179  0.75852935  0.69361197    -0.07800
C1996       C  0.38748076  0.73384817  0.66628974    -0.08500
C1997       C  0.36870276  0.74281684  0.63882696    -0.03100
C1998       C  0.35140069  0.77792263  0.63914937     0.03800
N1999       N  0.33196320  0.78904875  0.61181890     0.66300
H2000       H  0.33811910  0.82816307  0.66704966     0.15200
H2001       H  0.40152333  0.70764383  0.66640220     0.14900
N2002       N  0.40915940  0.74726601  0.72056852     0.74000
O2003       O  0.30413595  0.77592049  0.60929419    -0.39500
O2004       O  0.34107416  0.81551582  0.59264735    -0.39400
O2005       O  0.40140890  0.71896951  0.73839957    -0.40100
O2006       O  0.43663590  0.76143368  0.72314364    -0.40200
C2007       C  0.48251533  0.86971979  0.81338248    -0.12500
C2008       C  0.46539605  0.83505200  0.81321077     0.04500
C2009       C  0.48259707  0.80005184  0.81383018    -0.07800
C2010       C  0.51593828  0.80047686  0.81432210    -0.08500
C2011       C  0.53303903  0.83516950  0.81460042    -0.03100
C2012       C  0.51581980  0.87016532  0.81379559     0.03800
N2013       N  0.53165499  0.90649934  0.81238959     0.66300
H2014       H  0.46998589  0.89700509  0.81252680     0.15200
H2015       H  0.52850119  0.77321706  0.81521135     0.14900
N2016       N  0.46671333  0.76376368  0.81497277     0.74000
O2017       O  0.54484820  0.91716768  0.78582727    -0.39500
O2018       O  0.52879929  0.92994875  0.83603859    -0.39400
O2019       O  0.46827279  0.74136388  0.79046633    -0.40100
O2020       O  0.45512118  0.75187597  0.84195088    -0.40200
C2021       C  0.21920301  0.76605790  0.75848943    -0.12500
C2022       C  0.22325624  0.74346638  0.73010136     0.04500
C2023       C  0.25402320  0.73617188  0.71776581    -0.07800
C2024       C  0.28030530  0.75037905  0.73464069    -0.08500
C2025       C  0.27627884  0.77269873  0.76317926    -0.03100
C2026       C  0.24545488  0.78058407  0.77520006     0.03800
N2027       N  0.24056226  0.80214416  0.80493126     0.66300
H2028       H  0.19566630  0.77056117  0.76891942     0.15200
H2029       H  0.30387460  0.74576234  0.72431704     0.14900
N2030       N  0.25878163  0.71507740  0.68777823     0.74000
O2031       O  0.22548511  0.83348842  0.80391998    -0.39500
O2032       O  0.24602797  0.78664931  0.83256538    -0.39400
O2033       O  0.24942934  0.72887724  0.66060459    -0.40100
O2034       O  0.27539182  0.68487905  0.68793345    -0.40200
C2035       C  0.28019750  0.88952556  0.88959099    -0.12500
C2036       C  0.27917681  0.90104792  0.85622974     0.04500
C2037       C  0.24976834  0.91429946  0.84364336    -0.07800
C2038       C  0.22202016  0.91199900  0.86341250    -0.08500
C2039       C  0.22305584  0.89847038  0.89630122    -0.03100
C2040       C  0.25289045  0.88824680  0.90943742     0.03800
N2041       N  0.25578014  0.87317346  0.94208482     0.66300
H2042       H  0.30230580  0.87941265  0.90032452     0.15200
H2043       H  0.19941357  0.92075149  0.85292115     0.14900
N2044       N  0.24771158  0.93064040  0.81123465     0.74000
O2045       O  0.25979743  0.83746092  0.94570898    -0.39500
O2046       O  0.26401234  0.89559644  0.96500675    -0.39400
O2047       O  0.22922010  0.91623135  0.79011348    -0.40100
O2048       O  0.25991065  0.96314701  0.80573892    -0.40200
loop_ 
_geom_bond_atom_site_label_1 
_geom_bond_atom_site_label_2 
_geom_bond_distance 
_geom_bond_site_symmetry_2 
_ccdc_geom_bond_type 
O1           C16   1.267       .  A
O1           Al9   1.933       .  S
C2           O12   1.271       .  A
C2            O3   1.260       .  A
C2         C1012   1.505       .  S
O3           Al5   1.887       .  S
O4            C6   1.273       .  A
O4           Al5   1.961       .  S
Al5          O13   1.960       .  S
Al5          O15   1.892       .  S
Al5          O14   1.770       .  S
C6           O19   1.255       .  A
C6          C956   1.482       .  S
O7           C17   1.266       .  A
O7           Al9   1.934       .  S
O8           C21   1.275       .  A
O8          Al18   1.980       .  S
Al9          O22   1.878       .  S
Al9          O19   1.869       .  S
Al9          O14   1.770       .  S
O10          C17   1.253       .  A
O10         Al18   1.864       .  S
O11          C20   1.261       .  A
O11         Al18   1.884       .  S
O12         Al18   1.961       .  S
O13          C20   1.274       .  A
O14         Al18   1.772       .  S
O15          C16   1.263       .  A
C16         C984   1.493       .  S
C17        C1001   1.458       .  S
C20         C945   1.492       .  S
C21          O22   1.257       .  A
C21         C970   1.500       .  S
O23          C38   1.258       .  A
O23         Al31   1.886       .  S
C24          O34   1.262       .  A
C24          O25   1.266       .  A
C24         C900   1.502       .  S
O25         Al27   1.945       .  S
O26          C28   1.257       .  A
O26         Al27   1.859       .  S
Al27         O35   1.883       .  S
Al27         O37   1.947       .  S
Al27         O36   1.772       .  S
C28          O41   1.269       .  A
C28         C889   1.474       .  S
O29          C39   1.254       .  A
O29         Al31   1.863       .  S
O30          C43   1.261       .  A
O30         Al40   1.891       .  S
Al31         O44   1.931       .  S
Al31         O41   1.942       .  S
Al31         O36   1.774       .  S
O32          C39   1.272       .  A
O32         Al40   1.961       .  S
O33          C42   1.277       .  A
O33         Al40   1.969       .  S
O34         Al40   1.904       .  S
O35          C42   1.262       .  A
O36         Al40   1.771       .  S
O37          C38   1.267       .  A
C38         C928   1.493       .  S
C39         C917   1.492       .  S
C42         C872   1.495       .  S
C43          O44   1.268       .  A
C43         C987   1.493       .  S
O45          C60   1.272       .  A
O45         Al53   1.944       .  S
C46          O56   1.274       .  A
C46          O47   1.261       .  A
C46         C847   1.500       .  S
O47         Al49   1.888       .  S
O48          C50   1.271       .  A
O48         Al49   1.960       .  S
Al49         O57   1.968       .  S
Al49         O59   1.892       .  S
Al49         O58   1.777       .  S
C50          O63   1.256       .  A
C50         C931   1.481       .  S
O51          C61   1.269       .  A
O51         Al53   1.951       .  S
O52          C65   1.273       .  A
O52       Al1086   1.968       .  S
Al53         O63   1.875       .  S
Al53       O1090   1.873       .  S
Al53         O58   1.767       .  S
O54          C61   1.252       .  A
O54         Al62   1.856       .  S
O55          C64   1.258       .  A
O55         Al62   1.879       .  S
O56         Al62   1.960       .  S
O57          C64   1.273       .  A
O58         Al62   1.771       .  S
O59          C60   1.264       .  A
C60         C861   1.488       .  S
C61         C833   1.470       .  S
Al62       O1076   1.964   1_554  S
C64         C819   1.495       .  S
C65          O66   1.255       .  A
C65         C914   1.492       .  S
O66       Al1077   1.871       .  S
O67          C82   1.255       .  A
O67       Al1099   1.882       .  S
C68          O78   1.260       .  A
C68          O69   1.271       .  A
C68         C802   1.498       .  S
O69         Al71   1.956       .  S
O70          C72   1.251       .  A
O70         Al71   1.845       .  S
Al71         O79   1.874       .  S
Al71       O1105   1.955   1_554  S
Al71         O80   1.774       .  S
C72          O85   1.272       .  A
C72         C791   1.461       .  S
O73          C83   1.254       .  A
O73         Al75   1.873       .  S
O74          C87   1.262       .  A
O74         Al84   1.888       .  S
Al75         O88   1.949       .  S
Al75         O85   1.957       .  S
Al75       O1091   1.884   1_554  S
Al75         O80   1.770       .  S
O76          C83   1.274       .  A
O76         Al84   1.966       .  S
O77          C86   1.278       .  A
O77         Al84   1.979       .  S
O78         Al84   1.893       .  S
O79          C86   1.257       .  A
O80         Al84   1.771       .  S
O81          C82   1.269       .  A
O81       Al1095   1.953       .  S
C82         C959   1.493       .  S
C83         C973   1.496       .  S
C86         C774   1.494       .  S
C87          O88   1.271       .  A
C87         C858   1.495       .  S
O89         C104   1.269       .  A
O89         Al97   1.935       .  S
C90         O100   1.275       .  A
C90          O91   1.263       .  A
C90        C1015   1.499       .  S
O91         Al93   1.896       .  S
O92          C94   1.269       .  A
O92         Al93   1.943       .  S
Al93        O101   1.954       .  S
Al93        O103   1.900       .  S
Al93        O102   1.777       .  S
C94         O107   1.259       .  A
C94         C732   1.489       .  S
O95         C105   1.268       .  A
O95         Al97   1.942       .  S
O96         C109   1.270       .  A
O96       Al1130   1.954   1_554  S
Al97        O107   1.889       .  S
Al97       O1134   1.877       .  S
Al97        O102   1.770       .  S
O98         C105   1.251       .  A
O98        Al106   1.849       .  S
O99         C108   1.255       .  A
O99        Al106   1.886       .  S
O100       Al106   1.963       .  S
O101        C108   1.270       .  A
O102       Al106   1.771       .  S
O103        C104   1.267       .  A
C104        C760   1.488       .  S
C105        C788   1.465       .  S
Al106      O1120   1.957       .  S
C108        C718   1.477       .  S
C109        O110   1.254   1_554  A
C109        C749   1.485       .  S
O110      Al1121   1.871       .  S
O111        C126   1.254       .  A
O111      Al1143   1.880   1_554  S
C112        O122   1.262       .  A
C112        O113   1.272       .  A
C112        C903   1.498       .  S
O113       Al115   1.954       .  S
O114        C116   1.254       .  A
O114       Al115   1.858       .  S
Al115       O123   1.871       .  S
Al115      O1149   1.945       .  S
Al115       O124   1.772       .  S
C116        O129   1.271       .  A
C116        C830   1.473       .  S
O117        C127   1.258       .  A
O117       Al119   1.886       .  S
O118        C131   1.262       .  A
O118       Al128   1.889       .  S
Al119       O132   1.944       .  S
Al119       O129   1.952       .  S
Al119      O1135   1.883       .  S
Al119       O124   1.773       .  S
O120        C127   1.269       .  A
O120       Al128   1.943       .  S
O121        C130   1.271       .  A
O121       Al128   1.959       .  S
O122       Al128   1.898       .  S
O123        C130   1.256       .  A
O124       Al128   1.778       .  S
O125        C126   1.269       .  A
O125      Al1139   1.953   1_554  S
C126        C704   1.495       .  S
C127        C693   1.484       .  S
C130        C676   1.489       .  S
C131        O132   1.271       .  A
C131        C763   1.489       .  S
O133        C148   1.268       .  A
O133       Al141   1.933       .  S
C134        O144   1.270       .  A
C134        O135   1.261       .  A
C134        C844   1.500       .  S
O135       Al137   1.899       .  S
O136        C138   1.273       .  A
O136       Al137   1.958       .  S
Al137       O145   1.966       .  S
Al137       O147   1.887       .  S
Al137       O146   1.770       .  S
C138        O151   1.256       .  A
C138        C707   1.491       .  S
O139        C149   1.269       .  A
O139       Al141   1.940       .  S
O140        C153   1.269       .  A
O140       Al150   1.957       .  S
Al141       O154   1.880       .  S
Al141       O151   1.874       .  S
Al141       O146   1.769       .  S
O142        C149   1.255       .  A
O142       Al150   1.862       .  S
O143        C152   1.258       .  A
O143       Al150   1.875       .  S
O144       Al150   1.948       .  S
O145        C152   1.276       .  A
O146       Al150   1.772       .  S
O147        C148   1.261       .  A
C148        C662   1.485       .  S
C149        C886   1.475       .  S
C152        C648   1.491       .  S
C153        O154   1.258       .  A
C153        C690   1.492       .  S
O155        C170   1.258       .  A
O155       Al163   1.882       .  S
C156        O166   1.261       .  A
C156        O157   1.268       .  A
C156        C805   1.505       .  S
O157       Al159   1.943       .  S
O158        C160   1.256       .  A
O158       Al159   1.865       .  S
Al159       O167   1.873       .  S
Al159       O169   1.960       .  S
Al159       O168   1.771       .  S
C160        O173   1.267       .  A
C160        C998   1.459       .  S
O161        C171   1.255       .  A
O161       Al163   1.860       .  S
O162        C175   1.262       .  A
O162       Al172   1.896       .  S
Al163       O176   1.922       .  S
Al163       O173   1.931       .  S
Al163       O168   1.771       .  S
O164        C171   1.271       .  A
O164       Al172   1.954       .  S
O165        C174   1.276       .  A
O165       Al172   1.963       .  S
O166       Al172   1.910       .  S
O167        C174   1.259       .  A
O168       Al172   1.770       .  S
O169        C170   1.269       .  A
C170        C735   1.492       .  S
C171        C746   1.489       .  S
C174        C634   1.492       .  S
C175        O176   1.265       .  A
C175        C665   1.486       .  S
O177        C192   1.268       .  A
O177       Al185   1.936       .  S
C178        O188   1.267       .  A
C178        O179   1.261       .  A
C178        C578   1.500       .  S
O179       Al181   1.900       .  S
O180        C182   1.275       .  A
O180       Al181   1.971       .  S
Al181       O189   1.977       .  S
Al181       O191   1.882       .  S
Al181       O190   1.769       .  S
C182        O195   1.253       .  A
C182        C595   1.495       .  S
O183        C193   1.270       .  A
O183       Al185   1.947       .  S
O184        C197   1.271       .  A
O184      Al1218   1.964   1_554  S
Al185       O195   1.867       .  S
Al185      O1222   1.881       .  S
Al185       O190   1.772       .  S
O186        C193   1.255       .  A
O186       Al194   1.864       .  S
O187        C196   1.262       .  A
O187       Al194   1.878       .  S
O188       Al194   1.945       .  S
O189        C196   1.279       .  A
O190       Al194   1.773       .  S
O191        C192   1.259       .  A
C192        C620   1.491       .  S
C193        C564   1.457       .  S
Al194      O1208   1.961       .  S
C196        C816   1.499       .  S
C197        O198   1.256   1_554  A
C197        C606   1.494       .  S
O198      Al1209   1.881       .  S
O199        C214   1.258   1_556  A
O199      Al1231   1.877       .  S
C200        O210   1.259       .  A
C200        O201   1.268       .  A
C200        C553   1.504       .  S
O201       Al203   1.945       .  S
O202        C204   1.253       .  A
O202       Al203   1.860       .  S
Al203       O211   1.867       .  S
Al203      O1237   1.959       .  S
Al203       O212   1.768       .  S
C204        O217   1.267       .  A
C204        C536   1.472       .  S
O205        C215   1.255       .  A
O205       Al207   1.860       .  S
O206        C219   1.264       .  A
O206       Al216   1.899       .  S
Al207       O220   1.927       .  S
Al207       O217   1.939       .  S
Al207      O1223   1.876       .  S
Al207       O212   1.772       .  S
O208        C215   1.276       .  A
O208       Al216   1.971       .  S
O209        C218   1.279       .  A
O209       Al216   1.984       .  S
O210       Al216   1.898       .  S
O211        C218   1.257       .  A
O212       Al216   1.767       .  S
O213        C214   1.273       .  A
O213      Al1227   1.963   1_554  S
C214        C522   1.488       .  S
C215        C508   1.485       .  S
C218        C777   1.502       .  S
C219        O220   1.265       .  A
C219        C623   1.490       .  S
O221        C236   1.267       .  A
O221       Al229   1.932       .  S
C222        O232   1.270       .  A
C222        O223   1.260       .  A
C222        C483   1.499       .  S
O223       Al225   1.894       .  S
O224        C226   1.271       .  A
O224       Al225   1.957       .  S
Al225       O233   1.968       .  S
Al225       O235   1.890       .  S
Al225       O234   1.772       .  S
C226        O239   1.255       .  A
C226        C525   1.487       .  S
O227        C237   1.269       .  A
O227       Al229   1.946       .  S
O228        C241   1.272       .  A
O228       Al238   1.964       .  S
Al229       O242   1.879       .  S
Al229       O239   1.863       .  S
Al229       O234   1.768       .  S
O230        C237   1.255       .  A
O230       Al238   1.858       .  S
O231        C240   1.261       .  A
O231       Al238   1.878       .  S
O232       Al238   1.950       .  S
O233        C240   1.275       .  A
O234       Al238   1.769       .  S
O235        C236   1.263       .  A
C236        C466   1.493       .  S
C237        C494   1.476       .  S
C240        C942   1.497       .  S
C241        O242   1.255       .  A
C241        C511   1.495       .  S
O243        C258   1.255       .  A
O243       Al251   1.879       .  S
C244        O254   1.260       .  A
C244        O245   1.270       .  A
C244        C441   1.502       .  S
O245       Al247   1.953       .  S
O246        C248   1.255       .  A
O246       Al247   1.861       .  S
Al247       O255   1.877       .  S
Al247       O257   1.964       .  S
Al247       O256   1.770       .  S
C248        O261   1.265       .  A
C248        C452   1.468       .  S
O249        C259   1.255       .  A
O249       Al251   1.865       .  S
O250        C263   1.261       .  A
O250       Al260   1.892       .  S
Al251       O264   1.923       .  S
Al251       O261   1.938       .  S
Al251       O256   1.774       .  S
O252        C259   1.274       .  A
O252       Al260   1.962       .  S
O253        C262   1.275       .  A
O253       Al260   1.968       .  S
O254       Al260   1.893       .  S
O255        C262   1.260       .  A
O256       Al260   1.775       .  S
O257        C258   1.272       .  A
C258        C592   1.494       .  S
C259        C609   1.488       .  S
C262        C875   1.498       .  S
C263        O264   1.266       .  A
C263        C469   1.490       .  S
O265        C280   1.266       .  A
O265       Al273   1.931       .  S
C266        O276   1.267       .  A
C266        O267   1.262       .  A
C266        C581   1.500       .  S
O267       Al269   1.901       .  S
O268        C270   1.274       .  A
O268       Al269   1.962       .  S
Al269       O277   1.969       .  S
Al269       O279   1.895       .  S
Al269       O278   1.770       .  S
C270        O283   1.255       .  A
C270        C413   1.487       .  S
O271        C281   1.267       .  A
O271       Al273   1.943       .  S
O272        C285   1.268       .  A
O272       Al282   1.947       .  S
Al273       O286   1.876       .  S
Al273       O283   1.865       .  S
Al273       O278   1.772       .  S
O274        C281   1.256       .  A
O274       Al282   1.864       .  S
O275        C284   1.257       .  A
O275       Al282   1.870       .  S
O276       Al282   1.942       .  S
O277        C284   1.276       .  A
O278       Al282   1.771       .  S
O279        C280   1.262       .  A
C280        C424   1.487       .  S
C281        C455   1.470       .  S
C284        C651   1.495       .  S
C285        O286   1.257       .  A
C285        C396   1.479       .  S
O287        C302   1.256       .  A
O287       Al295   1.878       .  S
C288        O298   1.262       .  A
C288        O289   1.272       .  A
C288        C550   1.498       .  S
O289       Al291   1.952       .  S
O290        C292   1.254       .  A
O290       Al291   1.860       .  S
Al291       O299   1.878       .  S
Al291       O301   1.955       .  S
Al291       O300   1.767       .  S
C292        O305   1.267       .  A
C292        C497   1.476       .  S
O293        C303   1.257       .  A
O293       Al295   1.877       .  S
O294        C307   1.264       .  A
O294       Al304   1.894       .  S
Al295       O308   1.937       .  S
Al295       O305   1.940       .  S
Al295       O300   1.771       .  S
O296        C303   1.270       .  A
O296       Al304   1.949       .  S
O297        C306   1.272       .  A
O297       Al304   1.955       .  S
O298       Al304   1.899       .  S
O299        C306   1.257       .  A
O300       Al304   1.772       .  S
O301        C302   1.272       .  A
C302        C368   1.491       .  S
C303        C385   1.477       .  S
C306        C637   1.488       .  S
C307        O308   1.269       .  A
C307        C427   1.488       .  S
O309        C324   1.265       .  A
O309       Al317   1.930       .  S
C310        O320   1.268       .  A
C310        O311   1.259       .  A
C310        C480   1.497       .  S
O311       Al313   1.898       .  S
O312        C314   1.273       .  A
O312       Al313   1.964       .  S
Al313       O321   1.979       .  S
Al313       O323   1.884       .  S
Al313       O322   1.771       .  S
C314        O327   1.255       .  A
C314        C371   1.482       .  S
O315        C325   1.268       .  A
O315       Al317   1.943       .  S
O316        C329   1.270       .  A
O316      Al1350   1.957       .  S
Al317       O327   1.863       .  S
Al317      O1354   1.880   1_554  S
Al317       O322   1.768       .  S
O318        C325   1.255       .  A
O318       Al326   1.862       .  S
O319        C328   1.259       .  A
O319       Al326   1.867       .  S
O320       Al326   1.943       .  S
O321        C328   1.278       .  A
O322       Al326   1.768       .  S
O323        C324   1.262       .  A
C324        C354   1.489       .  S
C325        C539   1.475       .  S
Al326      O1340   1.957   1_554  S
C328        C721   1.497       .  S
C329        O330   1.256       .  A
C329        C382   1.492       .  S
O330      Al1341   1.880       .  S
O331        C346   1.256       .  A
O331      Al1363   1.877       .  S
C332        O342   1.261       .  A
C332        O333   1.270       .  A
C332        C438   1.501       .  S
O333       Al335   1.953       .  S
O334        C336   1.254       .  A
O334       Al335   1.865       .  S
Al335       O343   1.879       .  S
Al335      O1369   1.967   1_554  S
Al335       O344   1.768       .  S
C336        O349   1.266       .  A
C336        C567   1.452       .  S
O337        C347   1.256       .  A
O337       Al339   1.863       .  S
O338        C351   1.261       .  A
O338       Al348   1.887       .  S
Al339       O352   1.925       .  S
Al339       O349   1.936       .  S
Al339      O1355   1.875   1_554  S
Al339       O344   1.770       .  S
O340        C347   1.270       .  A
O340       Al348   1.945       .  S
O341        C350   1.272       .  A
O341       Al348   1.949       .  S
O342       Al348   1.895       .  S
O343        C350   1.261       .  A
O344       Al348   1.768       .  S
O345        C346   1.272       .  A
O345      Al1359   1.962       .  S
C346        C410   1.491       .  S
C347        C399   1.482       .  S
C350        C679   1.489       .  S
C351        O352   1.266       .  A
C351        C357   1.485       .  S
C353        C354   1.407       .  A
C353        C358   1.397   1_455  A
C353        H360   1.085       .  S
C354        C355   1.419       .  A
C355        C356   1.403   1_455  A
C355        N362   1.434       .  S
C356        C357   1.404       .  A
C356        H361   1.085       .  S
C357        C358   1.412       .  A
C358        N359   1.429       .  S
N359        O363   1.262       .  A
N359        O364   1.262       .  A
N362        O366   1.262       .  A
N362       O1389   1.262       .  A
O365       N1386   1.262       .  A
C367        C368   1.404       .  A
C367        C372   1.399       .  A
C367        H374   1.085       .  S
C368        C369   1.421       .  A
C369        C370   1.403       .  A
C369        N376   1.430       .  S
C370        C371   1.400       .  A
C370        H375   1.086       .  S
C371        C372   1.414       .  A
C372        N373   1.430       .  S
N373        O377   1.262       .  A
N373        O378   1.262       .  A
N376        O380   1.262       .  A
N376        O379   1.262       .  A
C381        C382   1.407       .  A
C381        C386   1.403       .  A
C381        H388   1.086       .  S
C382        C383   1.420       .  A
C383        C384   1.400       .  A
C383        N390   1.429       .  S
C384        C385   1.397       .  A
C384        H389   1.087       .  S
C385        C386   1.412       .  A
C386        N387   1.432       .  S
N387        O391   1.263       .  A
N387        O392   1.262       .  A
N390        O394   1.262       .  A
N390        O393   1.262       .  A
C395        C396   1.408       .  A
C395        C400   1.397       .  A
C395        H402   1.086       .  S
C396        C397   1.407       .  A
C397        C398   1.399       .  A
C397        N404   1.428       .  S
C398        C399   1.410       .  A
C398        H403   1.086       .  S
C399        C400   1.409       .  A
C400        N401   1.429       .  S
N401        O405   1.262       .  A
N401        O406   1.262       .  A
N404        O408   1.262       .  A
N404        O407   1.262       .  A
C409        C410   1.402       .  A
C409        C414   1.402       .  A
C409        H416   1.086       .  S
C410        C411   1.421       .  A
C411        C412   1.401       .  A
C411        N418   1.430       .  S
C412        C413   1.400       .  A
C412        H417   1.087       .  S
C413        C414   1.418       .  A
C414        N415   1.430       .  S
N415        O419   1.262       .  A
N415        O420   1.262       .  A
N418        O422   1.262       .  A
N418        O421   1.262       .  A
C423        C424   1.404       .  A
C423        C428   1.402   1_655  A
C423        H430   1.085       .  S
C424        C425   1.414       .  A
C425        C426   1.403   1_655  A
C425        N432   1.430       .  S
C426        C427   1.406       .  A
C426        H431   1.085       .  S
C427        C428   1.415       .  A
C428        N429   1.432       .  S
N429        O433   1.262       .  A
N429        O434   1.262       .  A
N432        O436   1.262       .  A
N432        O435   1.262       .  A
C437        C438   1.409       .  A
C437        C442   1.408       .  A
C437        H444   1.085       .  S
C438        C439   1.414       .  A
C439        C440   1.407       .  A
C439        N446   1.429       .  S
C440        C441   1.410       .  A
C440        H445   1.085       .  S
C441        C442   1.416       .  A
C442        N443   1.431       .  S
N443        O447   1.262       .  A
N443        O448   1.262       .  A
N446        O450   1.262       .  A
N446        O449   1.262       .  A
C451        C452   1.402       .  A
C451        C456   1.396       .  A
C451        H458   1.087       .  S
C452        C453   1.413       .  A
C453        C454   1.397       .  A
C453        N460   1.435       .  S
C454        C455   1.403       .  A
C454        H459   1.087       .  S
C455        C456   1.413       .  A
C456        N457   1.434       .  S
N457        O461   1.262       .  A
N457        O462   1.262       .  A
N460        O464   1.262       .  A
N460        O463   1.262       .  A
C465        C466   1.408       .  A
C465        C470   1.401       .  A
C465        H472   1.085       .  S
C466        C467   1.418       .  A
C467        C468   1.401       .  A
C467        N474   1.432       .  S
C468        C469   1.405       .  A
C468        H473   1.085       .  S
C469        C470   1.414       .  A
C470        N471   1.430       .  S
N471        O475   1.262       .  A
N471        O476   1.262       .  A
N474        O478   1.262       .  A
N474        O477   1.262       .  A
C479        C480   1.405       .  A
C479        C484   1.405       .  A
C479        H486   1.086       .  S
C480        C481   1.416       .  A
C481        C482   1.406       .  A
C481        N488   1.429       .  S
C482        C483   1.407       .  A
C482        H487   1.085       .  S
C483        C484   1.418       .  A
C484        N485   1.429       .  S
N485        O489   1.262       .  A
N485        O490   1.262       .  A
N488        O492   1.262       .  A
N488        O491   1.262       .  A
C493        C494   1.408       .  A
C493        C498   1.394       .  A
C493        H500   1.086       .  S
C494        C495   1.408       .  A
C495        C496   1.395       .  A
C495        N502   1.429       .  S
C496        C497   1.408       .  A
C496        H501   1.086       .  S
C497        C498   1.409       .  A
C498        N499   1.429       .  S
N499        O503   1.262       .  A
N499        O504   1.262       .  A
N502        O506   1.261       .  A
N502        O505   1.262       .  A
C507        C508   1.397       .  A
C507        C512   1.402       .  A
C507        H514   1.086       .  S
C508        C509   1.417       .  A
C509        C510   1.402       .  A
C509        N516   1.430       .  S
C510        C511   1.404       .  A
C510        H515   1.085       .  S
C511        C512   1.423       .  A
C512        N513   1.428       .  S
N513        O517   1.262       .  A
N513        O518   1.262       .  A
N516        O520   1.262       .  A
N516        O519   1.262       .  A
C521        C522   1.411       .  A
C521        C526   1.402       .  A
C521        H528   1.086       .  S
C522        C523   1.408       .  A
C523        C524   1.400       .  A
C523        N530   1.428       .  S
C524        C525   1.409       .  A
C524        H529   1.086       .  S
C525        C526   1.409       .  A
C526        N527   1.429       .  S
N527        O531   1.262       .  A
N527        O532   1.262       .  A
N530        O534   1.261       .  A
N530        O533   1.262       .  A
C535        C536   1.408       .  A
C535        C540   1.393       .  A
C535        H542   1.086       .  S
C536       C1561   1.409       .  A
C537        C538   1.394   1_556  A
C537       C1560   1.408       .  A
C537        N544   1.429       .  S
C538        C539   1.408       .  A
C538        H543   1.085       .  S
C539       C1564   1.410   1_554  A
C540       C1563   1.408       .  A
C540        N541   1.431       .  S
N541        O545   1.262       .  A
N541        O546   1.262       .  A
N544        O548   1.262       .  A
N544        O547   1.261   1_556  A
C549        C550   1.405       .  A
C549        C554   1.407       .  A
C549        H556   1.085       .  S
C550        C551   1.415       .  A
C551        C552   1.408       .  A
C551        N558   1.430       .  S
C552        C553   1.408       .  A
C552        H557   1.085       .  S
C553        C554   1.421       .  A
C554        N555   1.429       .  S
N555        O559   1.262       .  A
N555        O560   1.262       .  A
N558        O562   1.262       .  A
N558        O561   1.262       .  A
C563        C568   1.397       .  A
C563       C1588   1.400   1_554  A
C563        H570   1.093       .  S
C564        C565   1.412       .  A
C564       C1587   1.401       .  A
C565        C566   1.394       .  A
C565        N572   1.436       .  S
C566       C1591   1.398       .  A
C566        H571   1.091       .  S
C567        C568   1.410       .  A
C567       C1590   1.398   1_554  A
C568        N569   1.436       .  S
N569        O573   1.263       .  A
N569        O574   1.263       .  A
N572        O576   1.262       .  A
N572        O575   1.262       .  A
C577        C578   1.408       .  A
C577        C582   1.406       .  A
C577        H584   1.085       .  S
C578        C579   1.416       .  A
C579        C580   1.408       .  A
C579        N586   1.431       .  S
C580        C581   1.408       .  A
C580        H585   1.085       .  S
C581        C582   1.416       .  A
C582        N583   1.430       .  S
N583        O587   1.262       .  A
N583        O588   1.262       .  A
N586        O590   1.262       .  A
N586        O589   1.262       .  A
C591        C592   1.400       .  A
C591        C596   1.404       .  A
C591        H598   1.085       .  S
C592        C593   1.421       .  A
C593        C594   1.404       .  A
C593        N600   1.430       .  S
C594        C595   1.402       .  A
C594        H599   1.085       .  S
C595        C596   1.423       .  A
C596        N597   1.431       .  S
N597        O601   1.262       .  A
N597        O602   1.262       .  A
N600        O604   1.262       .  A
N600        O603   1.262       .  A
C605        C606   1.404       .  A
C605        C610   1.406       .  A
C605        H612   1.086       .  S
C606        C607   1.421       .  A
C607        C608   1.401       .  A
C607        N614   1.430       .  S
C608        C609   1.399       .  A
C608        H613   1.087       .  S
C609        C610   1.421       .  A
C610        N611   1.435       .  S
N611        O615   1.263       .  A
N611        O616   1.262       .  A
N614        O618   1.262       .  A
N614        O617   1.262       .  A
C619        C620   1.405       .  A
C619        C624   1.403       .  A
C619        H626   1.086       .  S
C620        C621   1.417       .  A
C621        C622   1.400       .  A
C621        N628   1.429       .  S
C622        C623   1.404       .  A
C622        H627   1.086       .  S
C623        C624   1.416       .  A
C624       N1649   1.428       .  S
N625       C1648   1.431       .  S
N625        O629   1.262       .  A
N625        O630   1.262       .  A
N628        O632   1.262       .  A
N628        O631   1.262       .  A
C633        C634   1.403       .  A
C633        C638   1.403       .  A
C633        H640   1.086       .  S
C634        C635   1.420       .  A
C635        C636   1.401       .  A
C635        N642   1.429       .  S
C636        C637   1.401       .  A
C636        H641   1.086       .  S
C637        C638   1.417       .  A
C638        N639   1.430       .  S
N639        O643   1.262       .  A
N639        O644   1.262       .  A
N642        O646   1.262       .  A
N642        O645   1.262       .  A
C647        C648   1.400       .  A
C647        C652   1.402       .  A
C647        H654   1.086       .  S
C648        C649   1.419       .  A
C649        C650   1.405       .  A
C649        N656   1.431       .  S
C650        C651   1.402       .  A
C650        H655   1.085       .  S
C651        C652   1.421       .  A
C652        N653   1.429       .  S
N653        O657   1.262       .  A
N653        O658   1.262       .  A
N656        O660   1.262       .  A
N656        O659   1.262       .  A
C661        C662   1.406       .  A
C661        C666   1.401   1_655  A
C661        H668   1.086       .  S
C662        C663   1.413       .  A
C663        C664   1.401   1_655  A
C663        N670   1.430       .  S
C664        C665   1.406       .  A
C664        H669   1.086       .  S
C665        C666   1.413       .  A
C666        N667   1.430       .  S
N667        O671   1.262       .  A
N667        O672   1.262       .  A
N670        O674   1.262       .  A
N670        O673   1.262       .  A
C675        C680   1.400   1_565  A
C675       C1700   1.408   1_554  A
C675        H682   1.086       .  S
C676        C677   1.409       .  A
C676       C1699   1.409       .  A
C677        C678   1.402   1_565  A
C677        N684   1.429       .  S
C678       C1703   1.411       .  A
C678        H683   1.085       .  S
C679        C680   1.412       .  A
C679       C1702   1.410   1_554  A
C680        N681   1.429       .  S
N681        O685   1.262       .  A
N681        O686   1.262       .  A
N684        O688   1.262       .  A
N684        O687   1.262       .  A
C689        C690   1.410       .  A
C689        C694   1.399       .  A
C689        H696   1.086       .  S
C690        C691   1.415       .  A
C691        C692   1.404       .  A
C691        N698   1.428       .  S
C692        C693   1.406       .  A
C692        H697   1.086       .  S
C693        C694   1.409       .  A
C694        N695   1.431       .  S
N695        O699   1.262       .  A
N695        O700   1.262       .  A
N698        O702   1.262       .  A
N698        O701   1.262       .  A
C703        C704   1.403       .  A
C703        C708   1.403       .  A
C703        H710   1.086       .  S
C704        C705   1.421       .  A
C705        C706   1.402       .  A
C705        N712   1.430       .  S
C706        C707   1.401       .  A
C706        H711   1.086       .  S
C707        C708   1.418       .  A
C708        N709   1.429       .  S
N709        O713   1.262       .  A
N709        O714   1.262       .  A
N712        O716   1.262       .  A
N712        O715   1.262       .  A
C717        C718   1.408       .  A
C717       C1746   1.410   1_565  A
C717        H724   1.085       .  S
C718        C719   1.406   1_565  A
C719       C1744   1.395       .  A
C719        N726   1.430   1_545  S
C720        C721   1.411   1_556  A
C720       C1743   1.399       .  A
C720        H725   1.085       .  S
C721        C722   1.412       .  A
C722       C1741   1.410   1_545  A
C722        N723   1.430       .  S
N723        O727   1.262       .  A
N723        O728   1.262       .  A
N726        O730   1.262       .  A
N726       O1753   1.261       .  A
O729       N1750   1.261   1_545  A
C731        C732   1.408       .  A
C731        C736   1.406       .  A
C731        H738   1.086       .  S
C732        C733   1.411       .  A
C733        C734   1.399       .  A
C733        N740   1.430       .  S
C734        C735   1.409       .  A
C734        H739   1.085       .  S
C735        C736   1.413       .  A
C736        N737   1.428       .  S
N737        O741   1.262       .  A
N737        O742   1.262       .  A
N740        O744   1.262       .  A
N740        O743   1.262       .  A
C745        C746   1.412       .  A
C745        C750   1.403       .  A
C745        H752   1.085       .  S
C746        C747   1.409       .  A
C747        C748   1.399       .  A
C747        N754   1.429       .  S
C748        C749   1.411       .  A
C748        H753   1.086       .  S
C749        C750   1.408       .  A
C750        N751   1.435       .  S
N751        O755   1.263       .  A
N751        O756   1.262       .  A
N754        O758   1.262       .  A
N754        O757   1.262       .  A
C759        C760   1.404       .  A
C759        C764   1.402   1_455  A
C759        H766   1.085       .  S
C760        C761   1.415       .  A
C761        C762   1.403   1_455  A
C761       N1792   1.429       .  S
C762        C763   1.405       .  A
C762        H767   1.085       .  S
C763        C764   1.415       .  A
C764        N765   1.430       .  S
N765        O769   1.262       .  A
N765        O770   1.262       .  A
N768       C1785   1.429       .  S
N768        O772   1.262       .  A
N768        O771   1.262       .  A
C773        C774   1.399       .  A
C773       C1802   1.404       .  A
C773        H780   1.086       .  S
C774        C775   1.419   1_554  A
C775       C1800   1.407       .  A
C775        N782   1.429       .  S
C776        C777   1.404       .  A
C776       C1799   1.407       .  A
C776        H781   1.085       .  S
C777        C778   1.425       .  A
C778       C1797   1.405       .  A
C778        N779   1.430       .  S
N779        O783   1.262       .  A
N779       O1808   1.262       .  A
N782        O786   1.262       .  A
N782       O1809   1.262       .  A
O784       N1803   1.262       .  A
O785       N1806   1.262       .  A
C787        C788   1.394       .  A
C787        C792   1.391       .  A
C787        H794   1.087       .  S
C788        C789   1.421       .  A
C789       C1814   1.396       .  A
C789       N1820   1.434       .  S
C790        C791   1.392       .  A
C790       C1813   1.394       .  A
C790        H795   1.086       .  S
C791       C1816   1.417   1_554  A
C792       C1815   1.416       .  A
C792        N793   1.430       .  S
N793       O1821   1.262       .  A
N793        O798   1.262       .  A
N796       C1813   1.430       .  S
N796       O1824   1.260       .  A
N796        O799   1.261       .  A
O797       N1817   1.262       .  A
O800       N1820   1.262       .  A
C801        C802   1.406       .  A
C801        C806   1.410       .  A
C801        H808   1.085       .  S
C802        C803   1.415       .  A
C803        C804   1.406       .  A
C803        N810   1.430       .  S
C804        C805   1.408       .  A
C804        H809   1.084       .  S
C805        C806   1.419       .  A
C806        N807   1.429       .  S
N807        O811   1.262       .  A
N807        O812   1.262       .  A
N810        O814   1.262       .  A
N810        O813   1.262       .  A
C815        C820   1.405       .  A
C815       C1840   1.411   1_554  A
C815        H822   1.085       .  S
C816        C817   1.411       .  A
C816       C1839   1.412       .  A
C817        C818   1.406       .  A
C817        N824   1.429       .  S
C818       C1843   1.412       .  A
C818        H823   1.085       .  S
C819        C820   1.411       .  A
C819       C1842   1.410   1_554  A
C820        N821   1.428       .  S
N821        O825   1.262       .  A
N821        O826   1.262       .  A
N824        O828   1.262       .  A
N824        O827   1.262       .  A
C829        C830   1.395       .  A
C829        C834   1.396       .  A
C829        H836   1.085       .  S
C830       C1855   1.421       .  A
C831        C832   1.398       .  A
C831       C1854   1.421   1_554  A
C831        N838   1.433       .  S
C832        C833   1.394       .  A
C832        H837   1.085       .  S
C833       C1858   1.417   1_554  A
C834       C1857   1.419       .  A
C834        N835   1.429       .  S
N835        O839   1.262       .  A
N835        O840   1.262       .  A
N838        O842   1.262       .  A
N838        O841   1.261       .  A
C843        C844   1.405       .  A
C843        C848   1.406       .  A
C843        H850   1.084       .  S
C844        C845   1.418       .  A
C845        C846   1.408       .  A
C845        N852   1.429       .  S
C846        C847   1.406       .  A
C846        H851   1.084       .  S
C847        C848   1.418       .  A
C848        N849   1.430       .  S
N849        O853   1.262       .  A
N849        O854   1.262       .  A
N852        O856   1.262       .  A
N852        O855   1.262       .  A
C857        C858   1.409       .  A
C857        C862   1.402       .  A
C857        H864   1.085       .  S
C858        C859   1.415       .  A
C859        C860   1.405       .  A
C859       N1890   1.427       .  S
C860        C861   1.402       .  A
C860        H865   1.085       .  S
C861        C862   1.412       .  A
C862        N863   1.430       .  S
N863        O867   1.262       .  A
N863        O868   1.262       .  A
N866       C1883   1.431       .  S
N866        O870   1.262       .  A
N866       O1893   1.262       .  A
O869       N1890   1.262       .  A
C871        C872   1.411       .  A
C871        C876   1.407   1_565  A
C871        H878   1.085       .  S
C872        C873   1.410       .  A
C873        C874   1.403   1_565  A
C873        N880   1.429       .  S
C874        C875   1.411       .  A
C874        H879   1.085       .  S
C875        C876   1.412       .  A
C876        N877   1.428       .  S
N877        O881   1.262   1_545  A
N877        O882   1.262       .  A
N880        O884   1.262       .  A
N880        O883   1.262       .  A
C885        C886   1.409       .  A
C885        C890   1.395       .  A
C885        H892   1.086       .  S
C886        C887   1.409       .  A
C887        C888   1.391       .  A
C887        N894   1.430       .  S
C888        C889   1.406       .  A
C888        H893   1.087       .  S
C889        C890   1.408       .  A
C890        N891   1.430       .  S
N891        O895   1.262       .  A
N891        O896   1.262       .  A
N894        O898   1.262       .  A
N894        O897   1.262       .  A
C899        C900   1.407       .  A
C899        C904   1.406       .  A
C899        H906   1.086       .  S
C900        C901   1.417       .  A
C901        C902   1.409       .  A
C901        N908   1.429       .  S
C902        C903   1.408       .  A
C902        H907   1.086       .  S
C903        C904   1.414       .  A
C904        N905   1.428       .  S
N905        O909   1.262       .  A
N905        O910   1.262       .  A
N908        O912   1.262       .  A
N908        O911   1.262       .  A
C913        C914   1.413       .  A
C913        C918   1.402       .  A
C913        H920   1.086       .  S
C914        C915   1.411       .  A
C915        C916   1.405       .  A
C915        N922   1.434       .  S
C916        C917   1.412       .  A
C916        H921   1.086       .  S
C917        C918   1.408       .  A
C918        N919   1.429       .  S
N919        O923   1.262       .  A
N919        O924   1.262       .  A
N922        O926   1.262       .  A
N922        O925   1.262       .  A
C927        C928   1.411       .  A
C927        C932   1.404       .  A
C927        H934   1.086       .  S
C928        C929   1.417       .  A
C929        C930   1.401       .  A
C929        N936   1.430       .  S
C930        C931   1.403       .  A
C930        H935   1.087       .  S
C931        C932   1.408       .  A
C932        N933   1.429       .  S
N933        O937   1.262       .  A
N933        O938   1.262       .  A
N936        O940   1.262       .  A
N936        O939   1.262       .  A
C941        C942   1.411       .  A
C941        C946   1.403       .  A
C941        H948   1.085       .  S
C942        C943   1.413       .  A
C943        C944   1.406   1_545  A
C943        N950   1.429       .  S
C944        C945   1.409       .  A
C944        H949   1.085       .  S
C945        C946   1.410   1_565  A
C946        N947   1.429   1_545  S
N947        O951   1.262   1_565  A
N947        O952   1.262       .  A
N950        O954   1.262       .  A
N950        O953   1.262       .  A
C955        C956   1.398       .  A
C955        C960   1.401       .  A
C955        H962   1.087       .  S
C956        C957   1.415       .  A
C957        C958   1.402       .  A
C957        N964   1.430       .  S
C958        C959   1.404       .  A
C958        H963   1.086       .  S
C959        C960   1.420       .  A
C960        N961   1.427       .  S
N961        O965   1.262       .  A
N961        O966   1.262       .  A
N964        O968   1.261       .  A
N964        O967   1.262       .  A
C969        C970   1.403       .  A
C969        C974   1.407       .  A
C969        H976   1.086       .  S
C970        C971   1.423       .  A
C971        C972   1.403       .  A
C971        N978   1.429       .  S
C972        C973   1.399       .  A
C972        H977   1.086       .  S
C973        C974   1.421       .  A
C974        N975   1.429       .  S
N975        O979   1.262       .  A
N975        O980   1.262       .  A
N978        O982   1.262       .  A
N978        O981   1.262       .  A
C983        C984   1.406       .  A
C983        C988   1.401       .  A
C983        H990   1.085       .  S
C984        C985   1.417       .  A
C985        C986   1.404       .  A
C985        N992   1.431       .  S
C986        C987   1.406       .  A
C986        H991   1.085       .  S
C987        C988   1.416       .  A
C988        N989   1.430       .  S
N989        O993   1.262       .  A
N989        O994   1.262       .  A
N992        O996   1.262       .  A
N992        O995   1.262       .  A
C997        C998   1.401       .  A
C997       C1002   1.393       .  A
C997       H1004   1.085       .  S
C998        C999   1.409       .  A
C999       C1000   1.393       .  A
C999       N1006   1.430       .  S
C1000      C1001   1.400       .  A
C1000      H1005   1.085       .  S
C1001      C1002   1.410       .  A
C1002      N1003   1.431       .  S
N1003      O1007   1.262       .  A
N1003      O1008   1.261       .  A
N1006      O1010   1.261       .  A
N1006      O1009   1.262       .  A
C1011      C1012   1.408       .  A
C1011      C1016   1.403       .  A
C1011      H1018   1.085       .  S
C1012      C1013   1.417       .  A
C1013      C1014   1.414       .  A
C1013      N1020   1.433       .  S
C1014      C1015   1.410       .  A
C1014      H1019   1.085       .  S
C1015      C1016   1.411       .  A
C1016      N1017   1.428       .  S
N1017      O1021   1.262       .  A
N1017      O1022   1.262       .  A
N1020      O1024   1.263       .  A
N1020      O1023   1.262       .  A
O1025      C1040   1.267       .  A
O1025     Al1033   1.933       .  S
C1026      O1036   1.271       .  A
C1026      O1027   1.260       .  A
C1026      C2036   1.502       .  S
O1027     Al1029   1.879       .  S
O1028      C1030   1.273       .  A
O1028     Al1029   1.954       .  S
Al1029     O1037   1.954       .  S
Al1029     O1039   1.894       .  S
Al1029     O1038   1.767       .  S
C1030      O1043   1.254       .  A
C1030      C1980   1.481       .  S
O1031      C1041   1.266       .  A
O1031     Al1033   1.933       .  S
O1032      C1045   1.275       .  A
O1032     Al1042   1.977       .  S
Al1033     O1046   1.875       .  S
Al1033     O1043   1.866       .  S
Al1033     O1038   1.769       .  S
O1034      C1041   1.254       .  A
O1034     Al1042   1.863       .  S
O1035      C1044   1.260       .  A
O1035     Al1042   1.883       .  S
O1036     Al1042   1.966       .  S
O1037      C1044   1.273       .  A
O1038     Al1042   1.773       .  S
O1039      C1040   1.263       .  A
C1040      C2008   1.491       .  S
C1041      C2025   1.457       .  S
C1044      C1969   1.483       .  S
C1045      O1046   1.255       .  A
C1045      C1994   1.496       .  S
O1047      C1062   1.257       .  A
O1047     Al1055   1.885       .  S
C1048      O1058   1.262       .  A
C1048      O1049   1.268       .  A
C1048      C1924   1.503       .  S
O1049     Al1051   1.949       .  S
O1050      C1052   1.256       .  A
O1050     Al1051   1.857       .  S
Al1051     O1059   1.880       .  S
Al1051     O1061   1.952       .  S
Al1051     O1060   1.770       .  S
C1052      O1065   1.269       .  A
C1052      C1913   1.473       .  S
O1053      C1063   1.255       .  A
O1053     Al1055   1.867       .  S
O1054      C1067   1.262       .  A
O1054     Al1064   1.891       .  S
Al1055     O1068   1.932       .  S
Al1055     O1065   1.945       .  S
Al1055     O1060   1.774       .  S
O1056      C1063   1.272       .  A
O1056     Al1064   1.959       .  S
O1057      C1066   1.276       .  A
O1057     Al1064   1.968       .  S
O1058     Al1064   1.901       .  S
O1059      C1066   1.261       .  A
O1060     Al1064   1.770       .  S
O1061      C1062   1.268       .  A
C1062      C1952   1.493       .  S
C1063      C1941   1.495       .  S
C1066      C1896   1.493       .  S
C1067      O1068   1.268       .  A
C1067      C2011   1.492       .  S
O1069      C1084   1.272       .  A
O1069     Al1077   1.946       .  S
C1070      O1080   1.274       .  A
C1070      O1071   1.260       .  A
C1070      C1871   1.500       .  S
O1071     Al1073   1.884       .  S
O1072      C1074   1.273       .  A
O1072     Al1073   1.967       .  S
Al1073     O1081   1.976       .  S
Al1073     O1083   1.889       .  S
Al1073     O1082   1.773       .  S
C1074      O1087   1.256       .  A
C1074      C1955   1.489       .  S
O1075      C1085   1.271       .  A
O1075     Al1077   1.958       .  S
O1076      C1089   1.272       .  A
Al1077     O1087   1.871       .  S
Al1077     O1082   1.766       .  S
O1078      C1085   1.250       .  A
O1078     Al1086   1.852       .  S
O1079      C1088   1.258       .  A
O1079     Al1086   1.880       .  S
O1080     Al1086   1.959       .  S
O1081      C1088   1.275       .  A
O1082     Al1086   1.769       .  S
O1083      C1084   1.264       .  A
C1084      C1885   1.490       .  S
C1085      C1857   1.472       .  S
C1088      C1843   1.499       .  S
C1089      O1090   1.256   1_556  A
C1089      C1938   1.488       .  S
O1091      C1106   1.254       .  A
C1092      O1102   1.260       .  A
C1092      O1093   1.271       .  A
C1092      C1826   1.499       .  S
O1093     Al1095   1.955       .  S
O1094      C1096   1.253       .  A
O1094     Al1095   1.848       .  S
Al1095     O1103   1.874       .  S
Al1095     O1104   1.774       .  S
C1096      O1109   1.271       .  A
C1096      C1815   1.462       .  S
O1097      C1107   1.255       .  A
O1097     Al1099   1.874       .  S
O1098      C1111   1.263       .  A
O1098     Al1108   1.889       .  S
Al1099     O1112   1.942       .  S
Al1099     O1109   1.950       .  S
Al1099     O1104   1.773       .  S
O1100      C1107   1.273       .  A
O1100     Al1108   1.961       .  S
O1101      C1110   1.278       .  A
O1101     Al1108   1.979       .  S
O1102     Al1108   1.897       .  S
O1103      C1110   1.258       .  A
O1104     Al1108   1.771       .  S
O1105      C1106   1.270       .  A
C1106      C1983   1.493       .  S
C1107      C1997   1.494       .  S
C1110      C1798   1.494       .  S
C1111      O1112   1.269       .  A
C1111      C1882   1.496       .  S
O1113      C1128   1.269       .  A
O1113     Al1121   1.936       .  S
C1114      O1124   1.276       .  A
C1114      O1115   1.263       .  A
C1114      C2039   1.497       .  S
O1115     Al1117   1.894       .  S
O1116      C1118   1.271       .  A
O1116     Al1117   1.954       .  S
Al1117     O1125   1.964       .  S
Al1117     O1127   1.899       .  S
Al1117     O1126   1.775       .  S
C1118      O1131   1.257       .  A
C1118      C1756   1.485       .  S
O1119      C1129   1.268       .  A
O1119     Al1121   1.944       .  S
O1120      C1133   1.270       .  A
Al1121     O1131   1.882       .  S
Al1121     O1126   1.770       .  S
O1122      C1129   1.250       .  A
O1122     Al1130   1.841       .  S
O1123      C1132   1.254       .  A
O1123     Al1130   1.881       .  S
O1124     Al1130   1.965       .  S
O1125      C1132   1.272       .  A
O1126     Al1130   1.770       .  S
O1127      C1128   1.267       .  A
C1128      C1784   1.492       .  S
C1129      C1812   1.461       .  S
C1132      C1742   1.484       .  S
C1133      O1134   1.256       .  A
C1133      C1773   1.493       .  S
O1135      C1150   1.256       .  A
C1136      O1146   1.262       .  A
C1136      O1137   1.273       .  A
C1136      C1927   1.499       .  S
O1137     Al1139   1.960       .  S
O1138      C1140   1.254       .  A
O1138     Al1139   1.856       .  S
Al1139     O1147   1.877       .  S
Al1139     O1148   1.771       .  S
C1140      O1153   1.271       .  A
C1140      C1854   1.471       .  S
O1141      C1151   1.258       .  A
O1141     Al1143   1.883       .  S
O1142      C1155   1.261       .  A
O1142     Al1152   1.882       .  S
Al1143     O1156   1.948       .  S
Al1143     O1153   1.953       .  S
Al1143     O1148   1.772       .  S
O1144      C1151   1.267       .  A
O1144     Al1152   1.936       .  S
O1145      C1154   1.269       .  A
O1145     Al1152   1.949       .  S
O1146     Al1152   1.893       .  S
O1147      C1154   1.258       .  A
O1148     Al1152   1.776       .  S
O1149      C1150   1.268       .  A
C1150      C1728   1.492       .  S
C1151      C1717   1.486       .  S
C1154      C1700   1.488       .  S
C1155      O1156   1.272       .  A
C1155      C1787   1.493       .  S
O1157      C1172   1.267       .  A
O1157     Al1165   1.932       .  S
C1158      O1168   1.270       .  A
C1158      O1159   1.262       .  A
C1158      C1868   1.496       .  S
O1159     Al1161   1.901       .  S
O1160      C1162   1.272       .  A
O1160     Al1161   1.958       .  S
Al1161     O1169   1.965       .  S
Al1161     O1171   1.883       .  S
Al1161     O1170   1.770       .  S
C1162      O1175   1.256       .  A
C1162      C1731   1.488       .  S
O1163      C1173   1.269       .  A
O1163     Al1165   1.942       .  S
O1164      C1177   1.268       .  A
O1164     Al1174   1.956       .  S
Al1165     O1178   1.878       .  S
Al1165     O1175   1.873       .  S
Al1165     O1170   1.768       .  S
O1166      C1173   1.256       .  A
O1166     Al1174   1.862       .  S
O1167      C1176   1.259       .  A
O1167     Al1174   1.875       .  S
O1168     Al1174   1.945       .  S
O1169      C1176   1.276       .  A
O1170     Al1174   1.770       .  S
O1171      C1172   1.261       .  A
C1172      C1686   1.482       .  S
C1173      C1910   1.474       .  S
C1176      C1672   1.491       .  S
C1177      O1178   1.257       .  A
C1177      C1714   1.488       .  S
O1179      C1194   1.258       .  A
O1179     Al1187   1.882       .  S
C1180      O1190   1.262       .  A
C1180      O1181   1.269       .  A
C1180      C1829   1.506       .  S
O1181     Al1183   1.945       .  S
O1182      C1184   1.256       .  A
O1182     Al1183   1.866       .  S
Al1183     O1191   1.876       .  S
Al1183     O1193   1.956       .  S
Al1183     O1192   1.773       .  S
C1184      O1197   1.266       .  A
C1184      C2022   1.458       .  S
O1185      C1195   1.256       .  A
O1185     Al1187   1.868       .  S
O1186      C1199   1.262       .  A
O1186     Al1196   1.896       .  S
Al1187     O1200   1.915       .  S
Al1187     O1197   1.926       .  S
Al1187     O1192   1.772       .  S
O1188      C1195   1.272       .  A
O1188     Al1196   1.958       .  S
O1189      C1198   1.276       .  A
O1189     Al1196   1.965       .  S
O1190     Al1196   1.910       .  S
O1191      C1198   1.259       .  A
O1192     Al1196   1.770       .  S
O1193      C1194   1.268       .  A
C1194      C1759   1.492       .  S
C1195      C1770   1.492       .  S
C1198      C1658   1.492       .  S
C1199      O1200   1.264       .  A
C1199      C1689   1.482       .  S
O1201      C1216   1.267       .  A
O1201     Al1209   1.930       .  S
C1202      O1212   1.267       .  A
C1202      O1203   1.262       .  A
C1202      C1602   1.500       .  S
O1203     Al1205   1.906       .  S
O1204      C1206   1.273       .  A
O1204     Al1205   1.966       .  S
Al1205     O1213   1.967       .  S
Al1205     O1215   1.889       .  S
Al1205     O1214   1.771       .  S
C1206      O1219   1.254       .  A
C1206      C1619   1.482       .  S
O1207      C1217   1.268       .  A
O1207     Al1209   1.942       .  S
O1208      C1221   1.270       .  A
Al1209     O1219   1.860       .  S
Al1209     O1214   1.770       .  S
O1210      C1217   1.256       .  A
O1210     Al1218   1.873       .  S
O1211      C1220   1.263       .  A
O1211     Al1218   1.883       .  S
O1212     Al1218   1.941       .  S
O1213      C1220   1.276       .  A
O1214     Al1218   1.771       .  S
O1215      C1216   1.260       .  A
C1216      C1644   1.485       .  S
C1217      C1588   1.455       .  S
C1220      C1840   1.498       .  S
C1221      O1222   1.256       .  A
C1221      C1630   1.495       .  S
O1223      C1238   1.258       .  A
C1224      O1234   1.258       .  A
C1224      O1225   1.270       .  A
C1224      C1577   1.501       .  S
O1225     Al1227   1.947       .  S
O1226      C1228   1.253       .  A
O1226     Al1227   1.861       .  S
Al1227     O1235   1.869       .  S
Al1227     O1236   1.766       .  S
C1228      O1241   1.267       .  A
C1228      C1560   1.475       .  S
O1229      C1239   1.255       .  A
O1229     Al1231   1.862       .  S
O1230      C1243   1.263       .  A
O1230     Al1240   1.894       .  S
Al1231     O1244   1.931       .  S
Al1231     O1241   1.946       .  S
Al1231     O1236   1.770       .  S
O1232      C1239   1.275       .  A
O1232     Al1240   1.969       .  S
O1233      C1242   1.278       .  A
O1233     Al1240   1.980       .  S
O1234     Al1240   1.891       .  S
O1235      C1242   1.257       .  A
O1236     Al1240   1.770       .  S
O1237      C1238   1.271       .  A
C1238      C1546   1.489       .  S
C1239      C1532   1.482       .  S
C1242      C1801   1.502       .  S
C1243      O1244   1.267       .  A
C1243      C1647   1.487       .  S
O1245      C1260   1.268       .  A
O1245     Al1253   1.932       .  S
C1246      O1256   1.270       .  A
C1246      O1247   1.260       .  A
C1246      C1507   1.500       .  S
O1247     Al1249   1.896       .  S
O1248      C1250   1.272       .  A
O1248     Al1249   1.962       .  S
Al1249     O1257   1.973       .  S
Al1249     O1259   1.887       .  S
Al1249     O1258   1.772       .  S
C1250      O1263   1.254       .  A
C1250      C1549   1.477       .  S
O1251      C1261   1.269       .  A
O1251     Al1253   1.948       .  S
O1252      C1265   1.272       .  A
O1252     Al1262   1.958       .  S
Al1253     O1266   1.879       .  S
Al1253     O1263   1.858       .  S
Al1253     O1258   1.768       .  S
O1254      C1261   1.254       .  A
O1254     Al1262   1.856       .  S
O1255      C1264   1.258       .  A
O1255     Al1262   1.867       .  S
O1256     Al1262   1.949       .  S
O1257      C1264   1.276       .  A
O1258     Al1262   1.764       .  S
O1259      C1260   1.262       .  A
C1260      C1490   1.488       .  S
C1261      C1518   1.474       .  S
C1264      C1966   1.495       .  S
C1265      O1266   1.256       .  A
C1265      C1535   1.493       .  S
O1267      C1282   1.254       .  A
O1267     Al1275   1.877       .  S
C1268      O1278   1.261       .  A
C1268      O1269   1.269       .  A
C1268      C1465   1.502       .  S
O1269     Al1271   1.949       .  S
O1270      C1272   1.256       .  A
O1270     Al1271   1.861       .  S
Al1271     O1279   1.873       .  S
Al1271     O1281   1.957       .  S
Al1271     O1280   1.769       .  S
C1272      O1285   1.266       .  A
C1272      C1476   1.473       .  S
O1273      C1283   1.255       .  A
O1273     Al1275   1.862       .  S
O1274      C1287   1.260       .  A
O1274     Al1284   1.890       .  S
Al1275     O1288   1.920       .  S
Al1275     O1285   1.939       .  S
Al1275     O1280   1.773       .  S
O1276      C1283   1.274       .  A
O1276     Al1284   1.963       .  S
O1277      C1286   1.275       .  A
O1277     Al1284   1.969       .  S
O1278     Al1284   1.896       .  S
O1279      C1286   1.259       .  A
O1280     Al1284   1.772       .  S
O1281      C1282   1.272       .  A
C1282      C1616   1.491       .  S
C1283      C1633   1.483       .  S
C1286      C1899   1.497       .  S
C1287      O1288   1.266       .  A
C1287      C1493   1.486       .  S
O1289      C1304   1.265       .  A
O1289     Al1297   1.926       .  S
C1290      O1300   1.267       .  A
C1290      O1291   1.261       .  A
C1290      C1605   1.501       .  S
O1291     Al1293   1.900       .  S
O1292      C1294   1.274       .  A
O1292     Al1293   1.961       .  S
Al1293     O1301   1.971       .  S
Al1293     O1303   1.897       .  S
Al1293     O1302   1.768       .  S
C1294      O1307   1.254       .  A
C1294      C1437   1.488       .  S
O1295      C1305   1.267       .  A
O1295     Al1297   1.939       .  S
O1296      C1309   1.268       .  A
O1296     Al1306   1.951       .  S
Al1297     O1310   1.875       .  S
Al1297     O1307   1.862       .  S
Al1297     O1302   1.770       .  S
O1298      C1305   1.256       .  A
O1298     Al1306   1.865       .  S
O1299      C1308   1.258       .  A
O1299     Al1306   1.871       .  S
O1300     Al1306   1.942       .  S
O1301      C1308   1.277       .  A
O1302     Al1306   1.773       .  S
O1303      C1304   1.263       .  A
C1304      C1448   1.491       .  S
C1305      C1479   1.473       .  S
C1308      C1675   1.495       .  S
C1309      O1310   1.256       .  A
C1309      C1420   1.482       .  S
O1311      C1326   1.255       .  A
O1311     Al1319   1.875       .  S
C1312      O1322   1.259       .  A
C1312      O1313   1.270       .  A
C1312      C1574   1.497       .  S
O1313     Al1315   1.950       .  S
O1314      C1316   1.253       .  A
O1314     Al1315   1.856       .  S
Al1315     O1323   1.869       .  S
Al1315     O1325   1.952       .  S
Al1315     O1324   1.767       .  S
C1316      O1329   1.269       .  A
C1316      C1521   1.475       .  S
O1317      C1327   1.256       .  A
O1317     Al1319   1.872       .  S
O1318      C1331   1.261       .  A
O1318     Al1328   1.886       .  S
Al1319     O1332   1.941       .  S
Al1319     O1329   1.948       .  S
Al1319     O1324   1.773       .  S
O1320      C1327   1.272       .  A
O1320     Al1328   1.951       .  S
O1321      C1330   1.274       .  A
O1321     Al1328   1.965       .  S
O1322     Al1328   1.891       .  S
O1323      C1330   1.256       .  A
O1324     Al1328   1.769       .  S
O1325      C1326   1.271       .  A
C1326      C1392   1.488       .  S
C1327      C1409   1.481       .  S
C1330      C1661   1.492       .  S
C1331      O1332   1.269       .  A
C1331      C1451   1.489       .  S
O1333      C1348   1.265       .  A
O1333     Al1341   1.927       .  S
C1334      O1344   1.268       .  A
C1334      O1335   1.259       .  A
C1334      C1504   1.499       .  S
O1335     Al1337   1.900       .  S
O1336      C1338   1.272       .  A
O1336     Al1337   1.959       .  S
Al1337     O1345   1.975       .  S
Al1337     O1347   1.880       .  S
Al1337     O1346   1.770       .  S
C1338      O1351   1.253       .  A
C1338      C1395   1.479       .  S
O1339      C1349   1.269       .  A
O1339     Al1341   1.942       .  S
O1340      C1353   1.270       .  A
Al1341     O1351   1.856       .  S
Al1341     O1346   1.769       .  S
O1342      C1349   1.255       .  A
O1342     Al1350   1.858       .  S
O1343      C1352   1.259       .  A
O1343     Al1350   1.863       .  S
O1344     Al1350   1.943       .  S
O1345      C1352   1.277       .  A
O1346     Al1350   1.767       .  S
O1347      C1348   1.261       .  A
C1348      C1378   1.487       .  S
C1349      C1563   1.472       .  S
C1352      C1745   1.489       .  S
C1353      O1354   1.256       .  A
C1353      C1406   1.491       .  S
O1355      C1370   1.255       .  A
C1356      O1366   1.261       .  A
C1356      O1357   1.269       .  A
C1356      C1462   1.500       .  S
O1357     Al1359   1.949       .  S
O1358      C1360   1.254       .  A
O1358     Al1359   1.865       .  S
Al1359     O1367   1.874       .  S
Al1359     O1368   1.767       .  S
C1360      O1373   1.265       .  A
C1360      C1591   1.453       .  S
O1361      C1371   1.255       .  A
O1361     Al1363   1.859       .  S
O1362      C1375   1.260       .  A
O1362     Al1372   1.887       .  S
Al1363     O1376   1.920       .  S
Al1363     O1373   1.933       .  S
Al1363     O1368   1.770       .  S
O1364      C1371   1.272       .  A
O1364     Al1372   1.953       .  S
O1365      C1374   1.274       .  A
O1365     Al1372   1.958       .  S
O1366     Al1372   1.896       .  S
O1367      C1374   1.260       .  A
O1368     Al1372   1.770       .  S
O1369      C1370   1.273       .  A
C1370      C1434   1.491       .  S
C1371      C1423   1.482       .  S
C1374      C1703   1.493       .  S
C1375      O1376   1.266       .  A
C1375      C1381   1.484       .  S
C1377      C1378   1.407       .  A
C1377      C1382   1.396   1_455  A
C1377      H1384   1.086       .  S
C1378      C1379   1.417       .  A
C1379      C1380   1.401   1_455  A
C1379      N1386   1.432       .  S
C1380      C1381   1.405       .  A
C1380      H1385   1.086       .  S
C1381      C1382   1.412       .  A
C1382      N1383   1.429       .  S
N1383      O1387   1.262       .  A
N1383      O1388   1.262       .  A
N1386      O1390   1.262       .  A
C1391      C1392   1.402       .  A
C1391      C1396   1.398       .  A
C1391      H1398   1.085       .  S
C1392      C1393   1.421       .  A
C1393      C1394   1.402       .  A
C1393      N1400   1.430       .  S
C1394      C1395   1.399       .  A
C1394      H1399   1.086       .  S
C1395      C1396   1.415       .  A
C1396      N1397   1.430       .  S
N1397      O1401   1.262       .  A
N1397      O1402   1.262       .  A
N1400      O1404   1.262       .  A
N1400      O1403   1.262       .  A
C1405      C1406   1.405       .  A
C1405      C1410   1.403       .  A
C1405      H1412   1.085       .  S
C1406      C1407   1.420       .  A
C1407      C1408   1.398       .  A
C1407      N1414   1.428       .  S
C1408      C1409   1.397       .  A
C1408      H1413   1.085       .  S
C1409      C1410   1.415       .  A
C1410      N1411   1.430       .  S
N1411      O1415   1.262       .  A
N1411      O1416   1.262       .  A
N1414      O1418   1.261       .  A
N1414      O1417   1.262       .  A
C1419      C1420   1.410       .  A
C1419      C1424   1.398       .  A
C1419      H1426   1.085       .  S
C1420      C1421   1.408       .  A
C1421      C1422   1.398       .  A
C1421      N1428   1.428       .  S
C1422      C1423   1.410       .  A
C1422      H1427   1.085       .  S
C1423      C1424   1.408       .  A
C1424      N1425   1.429       .  S
N1425      O1429   1.262       .  A
N1425      O1430   1.262       .  A
N1428      O1432   1.262       .  A
N1428      O1431   1.262       .  A
C1433      C1434   1.402       .  A
C1433      C1438   1.402       .  A
C1433      H1440   1.086       .  S
C1434      C1435   1.422       .  A
C1435      C1436   1.400       .  A
C1435      N1442   1.429       .  S
C1436      C1437   1.399       .  A
C1436      H1441   1.086       .  S
C1437      C1438   1.420       .  A
C1438      N1439   1.430       .  S
N1439      O1443   1.262       .  A
N1439      O1444   1.261       .  A
N1442      O1446   1.262       .  A
N1442      O1445   1.262       .  A
C1447      C1448   1.404       .  A
C1447      C1452   1.399   1_655  A
C1447      H1454   1.086       .  S
C1448      C1449   1.416       .  A
C1449      C1450   1.404   1_655  A
C1449      N1456   1.429       .  S
C1450      C1451   1.405       .  A
C1450      H1455   1.086       .  S
C1451      C1452   1.415       .  A
C1452      N1453   1.429       .  S
N1453      O1457   1.262       .  A
N1453      O1458   1.262       .  A
N1456      O1460   1.262       .  A
N1456      O1459   1.262       .  A
C1461      C1462   1.408       .  A
C1461      C1466   1.408       .  A
C1461      H1468   1.085       .  S
C1462      C1463   1.414       .  A
C1463      C1464   1.406       .  A
C1463      N1470   1.429       .  S
C1464      C1465   1.410       .  A
C1464      H1469   1.085       .  S
C1465      C1466   1.417       .  A
C1466      N1467   1.432       .  S
N1467      O1471   1.262       .  A
N1467      O1472   1.262       .  A
N1470      O1474   1.261       .  A
N1470      O1473   1.262       .  A
C1475      C1476   1.407       .  A
C1475      C1480   1.396       .  A
C1475      H1482   1.072       .  S
C1476      C1477   1.411       .  A
C1477      C1478   1.399       .  A
C1477      N1484   1.435       .  S
C1478      C1479   1.408       .  A
C1478      H1483   1.071       .  S
C1479      C1480   1.410       .  A
C1480      N1481   1.434       .  S
N1481      O1485   1.262       .  A
N1481      O1486   1.262       .  A
N1484      O1488   1.262       .  A
N1484      O1487   1.262       .  A
C1489      C1490   1.407       .  A
C1489      C1494   1.400       .  A
C1489      H1496   1.085       .  S
C1490      C1491   1.415       .  A
C1491      C1492   1.399       .  A
C1491      N1498   1.430       .  S
C1492      C1493   1.405       .  A
C1492      H1497   1.085       .  S
C1493      C1494   1.414       .  A
C1494      N1495   1.431       .  S
N1495      O1499   1.262       .  A
N1495      O1500   1.262       .  A
N1498      O1502   1.262       .  A
N1498      O1501   1.262       .  A
C1503      C1504   1.406       .  A
C1503      C1508   1.405       .  A
C1503      H1510   1.085       .  S
C1504      C1505   1.417       .  A
C1505      C1506   1.406       .  A
C1505      N1512   1.429       .  S
C1506      C1507   1.407       .  A
C1506      H1511   1.085       .  S
C1507      C1508   1.418       .  A
C1508      N1509   1.429       .  S
N1509      O1513   1.262       .  A
N1509      O1514   1.262       .  A
N1512      O1516   1.262       .  A
N1512      O1515   1.262       .  A
C1517      C1518   1.408       .  A
C1517      C1522   1.394       .  A
C1517      H1524   1.086       .  S
C1518      C1519   1.408       .  A
C1519      C1520   1.394       .  A
C1519      N1526   1.429       .  S
C1520      C1521   1.409       .  A
C1520      H1525   1.086       .  S
C1521      C1522   1.408       .  A
C1522      N1523   1.429       .  S
N1523      O1527   1.261       .  A
N1523      O1528   1.262       .  A
N1526      O1530   1.261       .  A
N1526      O1529   1.262       .  A
C1531      C1532   1.399       .  A
C1531      C1536   1.403       .  A
C1531      H1538   1.085       .  S
C1532      C1533   1.415       .  A
C1533      C1534   1.400       .  A
C1533      N1540   1.430       .  S
C1534      C1535   1.404       .  A
C1534      H1539   1.085       .  S
C1535      C1536   1.422       .  A
C1536      N1537   1.429       .  S
N1537      O1541   1.262       .  A
N1537      O1542   1.262       .  A
N1540      O1544   1.262       .  A
N1540      O1543   1.262       .  A
C1545      C1546   1.411       .  A
C1545      C1550   1.400       .  A
C1545      H1552   1.095       .  S
C1546      C1547   1.413       .  A
C1547      C1548   1.398       .  A
C1547      N1554   1.429       .  S
C1548      C1549   1.405       .  A
C1548      H1553   1.093       .  S
C1549      C1550   1.406       .  A
C1550      N1551   1.429       .  S
N1551      O1555   1.262       .  A
N1551      O1556   1.262       .  A
N1554      O1558   1.262       .  A
N1554      O1557   1.262       .  A
C1559      C1560   1.408       .  A
C1559      C1564   1.395       .  A
C1559      H1566   1.085       .  S
C1561      C1562   1.392       .  A
C1561      N1568   1.430       .  S
C1562      C1563   1.408       .  A
C1562      H1567   1.086       .  S
C1564      N1565   1.432       .  S
N1565      O1569   1.262   1_556  A
N1565      O1570   1.262       .  A
N1568      O1572   1.262       .  A
N1568      O1571   1.262       .  A
C1573      C1574   1.405       .  A
C1573      C1578   1.407       .  A
C1573      H1580   1.085       .  S
C1574      C1575   1.416       .  A
C1575      C1576   1.405       .  A
C1575      N1582   1.429       .  S
C1576      C1577   1.406       .  A
C1576      H1581   1.084       .  S
C1577      C1578   1.421       .  A
C1578      N1579   1.430       .  S
N1579      O1583   1.262       .  A
N1579      O1584   1.262       .  A
N1582      O1586   1.262       .  A
N1582      O1585   1.262       .  A
C1587      C1592   1.397       .  A
C1587      H1594   1.091       .  S
C1588      C1589   1.406       .  A
C1589      C1590   1.391       .  A
C1589      N1596   1.427       .  S
C1590      H1595   1.093       .  S
C1591      C1592   1.409       .  A
C1592      N1593   1.438       .  S
N1593      O1597   1.263       .  A
N1593      O1598   1.262       .  A
N1596      O1600   1.261       .  A
N1596      O1599   1.261       .  A
C1601      C1602   1.408       .  A
C1601      C1606   1.408       .  A
C1601      H1608   1.085       .  S
C1602      C1603   1.416       .  A
C1603      C1604   1.406       .  A
C1603      N1610   1.431       .  S
C1604      C1605   1.408       .  A
C1604      H1609   1.085       .  S
C1605      C1606   1.417       .  A
C1606      N1607   1.431       .  S
N1607      O1611   1.262       .  A
N1607      O1612   1.262       .  A
N1610      O1614   1.262       .  A
N1610      O1613   1.262       .  A
C1615      C1616   1.402       .  A
C1615      C1620   1.397       .  A
C1615      H1622   1.085       .  S
C1616      C1617   1.423       .  A
C1617      C1618   1.405       .  A
C1617      N1624   1.430       .  S
C1618      C1619   1.399       .  A
C1618      H1623   1.086       .  S
C1619      C1620   1.412       .  A
C1620      N1621   1.426       .  S
N1621      O1625   1.262       .  A
N1621      O1626   1.261       .  A
N1624      O1628   1.262       .  A
N1624      O1627   1.262       .  A
C1629      C1630   1.406       .  A
C1629      C1634   1.407       .  A
C1629      H1636   1.080       .  S
C1630      C1631   1.420       .  A
C1631      C1632   1.403       .  A
C1631      N1638   1.432       .  S
C1632      C1633   1.400       .  A
C1632      H1637   1.080       .  S
C1633      C1634   1.419       .  A
C1634      N1635   1.438       .  S
N1635      O1639   1.263       .  A
N1635      O1640   1.262       .  A
N1638      O1642   1.262       .  A
N1638      O1641   1.262       .  A
C1643      C1644   1.404       .  A
C1643      C1648   1.402       .  A
C1643      H1650   1.086       .  S
C1644      C1645   1.414       .  A
C1645      C1646   1.401       .  A
C1645      N1652   1.431       .  S
C1646      C1647   1.405       .  A
C1646      H1651   1.086       .  S
C1647      C1648   1.415       .  A
N1649      O1653   1.262       .  A
N1649      O1654   1.262       .  A
N1652      O1656   1.262       .  A
N1652      O1655   1.262       .  A
C1657      C1658   1.401       .  A
C1657      C1662   1.403       .  A
C1657      H1664   1.085       .  S
C1658      C1659   1.419       .  A
C1659      C1660   1.403       .  A
C1659      N1666   1.429       .  S
C1660      C1661   1.401       .  A
C1660      H1665   1.085       .  S
C1661      C1662   1.421       .  A
C1662      N1663   1.431       .  S
N1663      O1667   1.262       .  A
N1663      O1668   1.262       .  A
N1666      O1670   1.262       .  A
N1666      O1669   1.262       .  A
C1671      C1672   1.400       .  A
C1671      C1676   1.402       .  A
C1671      H1678   1.085       .  S
C1672      C1673   1.419       .  A
C1673      C1674   1.405       .  A
C1673      N1680   1.431       .  S
C1674      C1675   1.402       .  A
C1674      H1679   1.085       .  S
C1675      C1676   1.421       .  A
C1676      N1677   1.429       .  S
N1677      O1681   1.262       .  A
N1677      O1682   1.262       .  A
N1680      O1684   1.262       .  A
N1680      O1683   1.262       .  A
C1685      C1686   1.406       .  A
C1685      C1690   1.399   1_655  A
C1685      H1692   1.085       .  S
C1686      C1687   1.412       .  A
C1687      C1688   1.400   1_655  A
C1687      N1694   1.430       .  S
C1688      C1689   1.406       .  A
C1688      H1693   1.085       .  S
C1689      C1690   1.412       .  A
C1690      N1691   1.431       .  S
N1691      O1695   1.262       .  A
N1691      O1696   1.262       .  A
N1694      O1698   1.262       .  A
N1694      O1697   1.262       .  A
C1699      C1704   1.402   1_565  A
C1699      H1706   1.086       .  S
C1700      C1701   1.410       .  A
C1701      C1702   1.402   1_565  A
C1701      N1708   1.429       .  S
C1702      H1707   1.086       .  S
C1703      C1704   1.411       .  A
C1704      N1705   1.429       .  S
N1705      O1709   1.262       .  A
N1705      O1710   1.262       .  A
N1708      O1712   1.262       .  A
N1708      O1711   1.262   1_565  A
C1713      C1714   1.409       .  A
C1713      C1718   1.397       .  A
C1713      H1720   1.086       .  S
C1714      C1715   1.411       .  A
C1715      C1716   1.403       .  A
C1715      N1722   1.428       .  S
C1716      C1717   1.408       .  A
C1716      H1721   1.086       .  S
C1717      C1718   1.411       .  A
C1718      N1719   1.429       .  S
N1719      O1723   1.262       .  A
N1719      O1724   1.262       .  A
N1722      O1726   1.262       .  A
N1722      O1725   1.261       .  A
C1727      C1728   1.404       .  A
C1727      C1732   1.401       .  A
C1727      H1734   1.088       .  S
C1728      C1729   1.419       .  A
C1729      C1730   1.402       .  A
C1729      N1736   1.430       .  S
C1730      C1731   1.402       .  A
C1730      H1735   1.088       .  S
C1731      C1732   1.417       .  A
C1732      N1733   1.429       .  S
N1733      O1737   1.262       .  A
N1733      O1738   1.262       .  A
N1736      O1740   1.262       .  A
N1736      O1739   1.262       .  A
C1741      C1742   1.409   1_554  A
C1741      H1748   1.085       .  S
C1742      C1743   1.407   1_565  A
C1743      N1750   1.430   1_545  S
C1744      C1745   1.408       .  A
C1744      H1749   1.085       .  S
C1745      C1746   1.412       .  A
C1746      N1747   1.430       .  S
N1747      O1751   1.262       .  A
N1747      O1752   1.262       .  A
N1750      O1754   1.262       .  A
C1755      C1756   1.407       .  A
C1755      C1760   1.404       .  A
C1755      H1762   1.086       .  S
C1756      C1757   1.410       .  A
C1757      C1758   1.400       .  A
C1757      N1764   1.431       .  S
C1758      C1759   1.409       .  A
C1758      H1763   1.085       .  S
C1759      C1760   1.414       .  A
C1760      N1761   1.429       .  S
N1761      O1765   1.262       .  A
N1761      O1766   1.262       .  A
N1764      O1768   1.262       .  A
N1764      O1767   1.262       .  A
C1769      C1770   1.411       .  A
C1769      C1774   1.407       .  A
C1769      H1776   1.085       .  S
C1770      C1771   1.408       .  A
C1771      C1772   1.401       .  A
C1771      N1778   1.429       .  S
C1772      C1773   1.412       .  A
C1772      H1777   1.085       .  S
C1773      C1774   1.413       .  A
C1774      N1775   1.437       .  S
N1775      O1779   1.263       .  A
N1775      O1780   1.263       .  A
N1778      O1782   1.262       .  A
N1778      O1781   1.262       .  A
C1783      C1784   1.404       .  A
C1783      C1788   1.400   1_455  A
C1783      H1790   1.085       .  S
C1784      C1785   1.417       .  A
C1785      C1786   1.403   1_455  A
C1786      C1787   1.406       .  A
C1786      H1791   1.085       .  S
C1787      C1788   1.418       .  A
C1788      N1789   1.429       .  S
N1789      O1793   1.262       .  A
N1789      O1794   1.262       .  A
N1792      O1796   1.262       .  A
N1792      O1795   1.262       .  A
C1797      C1798   1.399       .  A
C1797      H1804   1.085       .  S
C1798      C1799   1.419       .  A
C1799      N1806   1.430       .  S
C1800      C1801   1.403       .  A
C1800      H1805   1.085       .  S
C1801      C1802   1.424   1_556  A
C1802      N1803   1.428       .  S
N1803      O1807   1.262       .  A
N1806      O1810   1.262       .  A
C1811      C1812   1.392       .  A
C1811      C1816   1.392       .  A
C1811      H1818   1.086       .  S
C1812      C1813   1.417   1_556  A
C1814      C1815   1.392       .  A
C1814      H1819   1.087       .  S
C1816      N1817   1.429       .  S
N1817      O1822   1.261       .  A
N1820      O1823   1.261       .  A
C1825      C1826   1.406       .  A
C1825      C1830   1.409       .  A
C1825      H1832   1.086       .  S
C1826      C1827   1.415       .  A
C1827      C1828   1.407       .  A
C1827      N1834   1.430       .  S
C1828      C1829   1.408       .  A
C1828      H1833   1.086       .  S
C1829      C1830   1.419       .  A
C1830      N1831   1.429       .  S
N1831      O1835   1.262       .  A
N1831      O1836   1.262       .  A
N1834      O1838   1.262       .  A
N1834      O1837   1.262       .  A
C1839      C1844   1.406       .  A
C1839      H1846   1.085       .  S
C1840      C1841   1.413       .  A
C1841      C1842   1.405       .  A
C1841      N1848   1.429       .  S
C1842      H1847   1.085       .  S
C1843      C1844   1.411       .  A
C1844      N1845   1.429       .  S
N1845      O1849   1.262       .  A
N1845      O1850   1.262       .  A
N1848      O1852   1.262       .  A
N1848      O1851   1.262       .  A
C1853      C1854   1.395       .  A
C1853      C1858   1.395       .  A
C1853      H1860   1.085       .  S
C1855      C1856   1.399       .  A
C1855      N1862   1.435       .  S
C1856      C1857   1.394       .  A
C1856      H1861   1.085       .  S
C1858      N1859   1.429       .  S
N1859      O1863   1.262       .  A
N1859      O1864   1.262       .  A
N1862      O1866   1.262       .  A
N1862      O1865   1.261       .  A
C1867      C1868   1.404       .  A
C1867      C1872   1.403       .  A
C1867      H1874   1.085       .  S
C1868      C1869   1.416       .  A
C1869      C1870   1.408       .  A
C1869      N1876   1.429       .  S
C1870      C1871   1.407       .  A
C1870      H1875   1.084       .  S
C1871      C1872   1.419       .  A
C1872      N1873   1.429       .  S
N1873      O1877   1.261       .  A
N1873      O1878   1.262       .  A
N1876      O1880   1.262       .  A
N1876      O1879   1.262       .  A
C1881      C1882   1.408       .  A
C1881      C1886   1.400       .  A
C1881      H1888   1.085       .  S
C1882      C1883   1.419       .  A
C1883      C1884   1.406       .  A
C1884      C1885   1.404       .  A
C1884      H1889   1.085       .  S
C1885      C1886   1.413       .  A
C1886      N1887   1.430       .  S
N1887      O1891   1.262       .  A
N1887      O1892   1.262       .  A
N1890      O1894   1.261       .  A
C1895      C1896   1.411       .  A
C1895      C1900   1.406   1_565  A
C1895      H1902   1.085       .  S
C1896      C1897   1.410       .  A
C1897      C1898   1.403   1_565  A
C1897      N1904   1.429       .  S
C1898      C1899   1.411       .  A
C1898      H1903   1.085       .  S
C1899      C1900   1.412       .  A
C1900      N1901   1.429       .  S
N1901      O1905   1.262       .  A
N1901      O1906   1.262       .  A
N1904      O1908   1.262   1_565  A
N1904      O1907   1.262       .  A
C1909      C1910   1.408       .  A
C1909      C1914   1.395       .  A
C1909      H1916   1.088       .  S
C1910      C1911   1.411       .  A
C1911      C1912   1.393       .  A
C1911      N1918   1.432       .  S
C1912      C1913   1.405       .  A
C1912      H1917   1.088       .  S
C1913      C1914   1.408       .  A
C1914      N1915   1.430       .  S
N1915      O1919   1.261       .  A
N1915      O1920   1.262       .  A
N1918      O1922   1.262       .  A
N1918      O1921   1.262       .  A
C1923      C1924   1.409       .  A
C1923      C1928   1.407       .  A
C1923      H1930   1.085       .  S
C1924      C1925   1.416       .  A
C1925      C1926   1.408       .  A
C1925      N1932   1.429       .  S
C1926      C1927   1.409       .  A
C1926      H1931   1.085       .  S
C1927      C1928   1.414       .  A
C1928      N1929   1.429       .  S
N1929      O1933   1.262       .  A
N1929      O1934   1.262       .  A
N1932      O1936   1.262       .  A
N1932      O1935   1.262       .  A
C1937      C1938   1.410       .  A
C1937      C1942   1.401       .  A
C1937      H1944   1.086       .  S
C1938      C1939   1.407       .  A
C1939      C1940   1.405       .  A
C1939      N1946   1.432       .  S
C1940      C1941   1.414       .  A
C1940      H1945   1.086       .  S
C1941      C1942   1.410       .  A
C1942      N1943   1.429       .  S
N1943      O1947   1.262       .  A
N1943      O1948   1.262       .  A
N1946      O1950   1.262       .  A
N1946      O1949   1.262       .  A
C1951      C1952   1.412       .  A
C1951      C1956   1.404       .  A
C1951      H1958   1.085       .  S
C1952      C1953   1.413       .  A
C1953      C1954   1.401       .  A
C1953      N1960   1.429       .  S
C1954      C1955   1.408       .  A
C1954      H1959   1.086       .  S
C1955      C1956   1.410       .  A
C1956      N1957   1.429       .  S
N1957      O1961   1.262       .  A
N1957      O1962   1.262       .  A
N1960      O1964   1.262       .  A
N1960      O1963   1.262       .  A
C1965      C1966   1.412       .  A
C1965      C1970   1.399       .  A
C1965      H1972   1.086       .  S
C1966      C1967   1.412       .  A
C1967      C1968   1.407   1_545  A
C1967      N1974   1.428       .  S
C1968      C1969   1.407       .  A
C1968      H1973   1.086       .  S
C1969      C1970   1.407   1_565  A
C1970      N1971   1.431   1_545  S
N1971      O1975   1.261   1_565  A
N1971      O1976   1.262       .  A
N1974      O1978   1.262       .  A
N1974      O1977   1.262       .  A
C1979      C1980   1.394       .  A
C1979      C1984   1.398       .  A
C1979      H1986   1.087       .  S
C1980      C1981   1.416       .  A
C1981      C1982   1.403       .  A
C1981      N1988   1.430       .  S
C1982      C1983   1.405       .  A
C1982      H1987   1.085       .  S
C1983      C1984   1.423       .  A
C1984      N1985   1.428       .  S
N1985      O1989   1.262       .  A
N1985      O1990   1.262       .  A
N1988      O1992   1.261       .  A
N1988      O1991   1.262       .  A
C1993      C1994   1.403       .  A
C1993      C1998   1.406       .  A
C1993      H2000   1.085       .  S
C1994      C1995   1.423       .  A
C1995      C1996   1.401       .  A
C1995      N2002   1.430       .  S
C1996      C1997   1.399       .  A
C1996      H2001   1.085       .  S
C1997      C1998   1.421       .  A
C1998      N1999   1.429       .  S
N1999      O2003   1.262       .  A
N1999      O2004   1.262       .  A
N2002      O2006   1.262       .  A
N2002      O2005   1.262       .  A
C2007      C2008   1.406       .  A
C2007      C2012   1.401       .  A
C2007      H2014   1.086       .  S
C2008      C2009   1.416       .  A
C2009      C2010   1.403       .  A
C2009      N2016   1.430       .  S
C2010      C2011   1.406       .  A
C2010      H2015   1.086       .  S
C2011      C2012   1.416       .  A
C2012      N2013   1.431       .  S
N2013      O2017   1.262       .  A
N2013      O2018   1.262       .  A
N2016      O2020   1.262       .  A
N2016      O2019   1.262       .  A
C2021      C2022   1.400       .  A
C2021      C2026   1.392       .  A
C2021      H2028   1.086       .  S
C2022      C2023   1.408       .  A
C2023      C2024   1.393       .  A
C2023      N2030   1.430       .  S
C2024      C2025   1.400       .  A
C2024      H2029   1.086       .  S
C2025      C2026   1.409       .  A
C2026      N2027   1.431       .  S
N2027      O2031   1.261       .  A
N2027      O2032   1.261       .  A
N2030      O2034   1.261       .  A
N2030      O2033   1.262       .  A
C2035      C2036   1.407       .  A
C2035      C2040   1.399       .  A
C2035      H2042   1.086       .  S
C2036      C2037   1.416       .  A
C2037      C2038   1.414       .  A
C2037      N2044   1.430       .  S
C2038      C2039   1.410       .  A
C2038      H2043   1.086       .  S
C2039      C2040   1.410       .  A
C2040      N2041   1.425       .  S
N2041      O2045   1.262       .  A
N2041      O2046   1.261       .  A
N2044      O2048   1.262       .  A
N2044      O2047   1.261       .  A
