geometry optimzed in LAMMPS
_audit_creation_date              2020-12-01 
_audit_creation_method            'lammps2cif' 
_symmetry_space_group_name_H-M    'P1' 
_symmetry_Int_Tables_number       1 
_symmetry_cell_setting            triclinic 
loop_ 
_symmetry_equiv_pos_as_xyz 
  x,y,z 
_cell_length_a                    57.7419372 
_cell_length_b                    46.73897872214852 
_cell_length_c                    28.03825604659578 
_cell_angle_alpha                 89.97790654846695 
_cell_angle_beta                  90.05167404241224 
_cell_angle_gamma                 90.24202034046559 
loop_ 
_atom_site_label 
_atom_site_type_symbol 
_atom_site_fract_x 
_atom_site_fract_y 
_atom_site_fract_z 
_atom_site_charge 
Fe1        Fe  0.38042163  0.86193634  0.64926699     1.65800
Fe2        Fe  0.34266863  0.85506409  0.55847609     1.73200
Fe3        Fe  0.37799168  0.80042595  0.58618527     1.54400
O4          O  0.41258022  0.81109525  0.60088915    -0.81300
O5          O  0.32119231  0.82224939  0.57565545    -0.79600
O6          O  0.41294271  0.85726692  0.62141498    -0.83800
O7          O  0.38526783  0.82657150  0.69518916    -0.78700
O8          O  0.38454682  0.80878384  0.51599718    -0.80400
O9          O  0.32753322  0.87745083  0.61515386    -0.83200
C10         C  0.37833866  0.80061836  0.69348171     0.97600
C11         C  0.42325550  0.83459445  0.60874702     1.05000
O12         O  0.36718826  0.83915428  0.59775466    -1.12200
O13         O  0.36295807  0.88924284  0.53954898    -0.74600
O14         O  0.37750214  0.90061829  0.61073637    -0.78100
O15         O  0.37172267  0.78894368  0.65514551    -0.78800
C16         C  0.37266944  0.90692481  0.56749217     0.96500
O17         O  0.34836546  0.86727618  0.67975998    -0.76700
O18         O  0.35308593  0.83339535  0.49632852    -0.81900
C19         C  0.32466439  0.79578518  0.57009765     0.99100
C20         C  0.36992010  0.81709695  0.48538040     1.05000
O21         O  0.34488724  0.78497289  0.56912158    -0.77600
C22         C  0.32968401  0.87541088  0.66030308     1.03300
Fe23       Fe  0.63408634  0.86233184  0.63970268     1.65800
Fe24       Fe  0.67175206  0.85427707  0.54928411     1.73200
Fe25       Fe  0.63859877  0.79871703  0.58358949     1.54400
O26         O  0.64623270  0.78985592  0.65370738    -0.81300
O27         O  0.66055784  0.83047901  0.48906759    -0.79600
O28         O  0.63054893  0.82808915  0.68826688    -0.83800
O29         O  0.60150648  0.85434483  0.61296464    -0.78700
O30         O  0.67168648  0.78465570  0.56289400    -0.80400
O31         O  0.65061910  0.88690705  0.52809025    -0.83200
C32         C  0.59226565  0.83005231  0.60520861     0.97600
C33         C  0.63786483  0.80233883  0.68999475     1.05000
O34         O  0.64802227  0.83850434  0.59071888    -1.12200
O35         O  0.68717868  0.87862709  0.60400170    -0.74600
O36         O  0.66612482  0.87059184  0.66921700    -0.78100
O37         O  0.60412392  0.80727162  0.60085211    -0.78800
C38         C  0.68494821  0.87806086  0.64931624     0.96500
O39         O  0.63539359  0.89999024  0.59764674    -0.76700
O40         O  0.69413681  0.82319113  0.56861184    -0.81900
C41         C  0.64340657  0.81377770  0.48082903     0.99100
C42         C  0.69150790  0.79673757  0.56193578     1.05000
O43         O  0.63011158  0.80512388  0.51374181    -0.77600
C44         C  0.63999162  0.90483986  0.55376019     1.03300
Fe45       Fe  0.63763749  0.64115707  0.14485537     1.65800
Fe46       Fe  0.66816576  0.64663316  0.04335537     1.73200
Fe47       Fe  0.63498597  0.70186892  0.07856335     1.54400
O48         O  0.60190434  0.69070335  0.10351401    -0.81300
O49         O  0.69024054  0.68001654  0.05134081    -0.79600
O50         O  0.60339361  0.64501157  0.12701413    -0.83800
O51         O  0.63560140  0.67726106  0.18951681    -0.78700
O52         O  0.62369296  0.69305745  0.01069371    -0.80400
O53         O  0.68781597  0.62573999  0.09600005    -0.83200
C54         C  0.64177270  0.70336673  0.18515963     0.97600
C55         C  0.59210683  0.66724280  0.11566548     1.05000
O56         O  0.64674570  0.66324094  0.08870131    -1.12200
O57         O  0.64696911  0.61194010  0.03302813    -0.74600
O58         O  0.63812791  0.60165180  0.10839463    -0.78100
O59         O  0.64592510  0.71463454  0.14501278    -0.78800
C60         C  0.63959205  0.59468400  0.06446730     0.96500
O61         O  0.67162667  0.63649232  0.16572082    -0.76700
O62         O  0.65305023  0.66687571  0.98410228    -0.81900
C63         C  0.68630741  0.70635001  0.04525556     0.99100
C64         C  0.63610404  0.68375693  0.97686620     1.05000
O65         O  0.66631366  0.71731161  0.05068794    -0.77600
C66         C  0.68880151  0.62806791  0.14130495     1.03300
Fe67       Fe  0.37939699  0.64025196  0.14799401     1.65800
Fe68       Fe  0.34593169  0.64911191  0.05080974     1.73200
Fe69       Fe  0.37790470  0.70414144  0.09253463     1.54400
O70         O  0.36767407  0.71208749  0.16122421    -0.81300
O71         O  0.36002723  0.67263568  0.99343220    -0.79600
O72         O  0.38228699  0.67386349  0.19723936    -0.83800
O73         O  0.41304784  0.64691287  0.12633940    -0.78700
O74         O  0.34576410  0.71919003  0.06962713    -0.80400
O75         O  0.36727746  0.61563280  0.03379181    -0.83200
C76         C  0.42287442  0.67092435  0.11898393     0.97600
C77         C  0.37450733  0.69931039  0.19839779     1.05000
O78         O  0.36793552  0.66445790  0.09663577    -1.12200
O79         O  0.32801264  0.62536622  0.10288871    -0.74600
O80         O  0.34607523  0.63373307  0.17184718    -0.78100
O81         O  0.41157860  0.69408729  0.11349681    -0.78800
C82         C  0.32810998  0.62662984  0.14841699     0.96500
O83         O  0.37834346  0.60272398  0.10662969    -0.76700
O84         O  0.32303911  0.68075768  0.06469649    -0.81900
C85         C  0.37690675  0.69017435  0.98843612     0.99100
C86         C  0.32601272  0.70752106  0.06396618     1.05000
O87         O  0.38854517  0.69939194  0.02352724    -0.77600
C88         C  0.37555669  0.59734537  0.06238442     1.03300
Fe89       Fe  0.13464063  0.86084186  0.84458378     1.65800
Fe90       Fe  0.16924442  0.85556895  0.94130247     1.73200
Fe91       Fe  0.13677097  0.79941282  0.90725572     1.54400
O92         O  0.10310344  0.80753504  0.88374456    -0.81300
O93         O  0.19212418  0.82361645  0.92921977    -0.79600
O94         O  0.10113602  0.85404382  0.86648511    -0.83800
O95         O  0.13272767  0.82493792  0.79871416    -0.78700
O96         O  0.12609246  0.80808836  0.97517421    -0.80400
O97         O  0.18663633  0.87790179  0.88672811    -0.83200
C98         C  0.14054627  0.79942139  0.80114277     0.97600
C99         C  0.09154611  0.83003375  0.87458852     1.05000
O100        O  0.14678080  0.83870712  0.89788498    -1.12200
O101        O  0.14751068  0.88898040  0.95590099    -0.74600
O102        O  0.13475505  0.89985557  0.88308329    -0.78100
O103        O  0.14714663  0.78839661  0.84005921    -0.78800
C104        C  0.13780463  0.90604289  0.92707169     0.96500
O105        O  0.16750468  0.86804020  0.81958804    -0.76700
O106        O  0.15615061  0.83354496  0.00153003    -0.81900
C107        C  0.18883040  0.79718109  0.93568389     0.99100
C108        C  0.13896132  0.81677962  0.00883672     1.05000
O109        O  0.16887238  0.78566523  0.93287088    -0.77600
C110        C  0.18565033  0.87615289  0.84130668     1.03300
Fe111      Fe  0.87892862  0.86432520  0.84346890     1.65800
Fe112      Fe  0.84233564  0.85559327  0.93540263     1.73200
Fe113      Fe  0.87744165  0.80139025  0.90286264     1.54400
O114        O  0.87076623  0.79099445  0.83322433    -0.81300
O115        O  0.85358374  0.83267390  0.99574609    -0.79600
O116        O  0.88323865  0.83014176  0.79587130    -0.83800
O117        O  0.91190450  0.85901114  0.86853882    -0.78700
O118        O  0.84448179  0.78574209  0.92048104    -0.80400
O119        O  0.86296523  0.88938601  0.95554963    -0.83200
C120        C  0.92245136  0.83591127  0.87781548     0.97600
C121        C  0.87736220  0.80382428  0.79583852     1.05000
O122        O  0.86641827  0.84040966  0.89415294    -1.12200
O123        O  0.82623544  0.87911341  0.88066026    -0.74600
O124        O  0.84651451  0.87038513  0.81489448    -0.78100
O125        O  0.91185879  0.81243315  0.88650746    -0.78800
C126        C  0.82797846  0.87808695  0.83531267     0.96500
O127        O  0.87667232  0.90193375  0.88426745    -0.76700
O128        O  0.82067825  0.82313258  0.91726872    -0.81900
C129        C  0.87043378  0.81603653  0.00524095     0.99100
C130        C  0.82424226  0.79656123  0.92076871     1.05000
O131        O  0.88466210  0.80806145  0.97357616    -0.77600
C132        C  0.87263383  0.90736447  0.92808993     1.03300
Fe133      Fe  0.87913877  0.63930782  0.34535075     1.65800
Fe134      Fe  0.84294875  0.64874897  0.43826742     1.73200
Fe135      Fe  0.87656200  0.70361649  0.40140342     1.54400
O136        O  0.91098885  0.69324968  0.38676738    -0.81300
O137        O  0.82050154  0.68028758  0.41974645    -0.79600
O138        O  0.91266005  0.64667299  0.36874046    -0.83800
O139        O  0.88236170  0.67257494  0.29528973    -0.78700
O140        O  0.88400503  0.69925363  0.47250363    -0.80400
O141        O  0.82684770  0.62409941  0.38551191    -0.83200
C142        C  0.87590878  0.69861454  0.29401181     0.97600
C143        C  0.92240023  0.67040841  0.37895040     1.05000
O144        O  0.86647268  0.66390095  0.39532062    -1.12200
O145        O  0.86405393  0.61596402  0.45893360    -0.74600
O146        O  0.87786863  0.60214030  0.38849457    -0.78100
O147        O  0.86968800  0.71200486  0.33104007    -0.78800
C148        C  0.87389017  0.59762622  0.43273200     0.96500
O149        O  0.84625477  0.63175853  0.31822010    -0.76700
O150        O  0.85467316  0.67212519  0.49746394    -0.81900
C151        C  0.82348593  0.70707434  0.41932150     0.99100
C152        C  0.87121984  0.68957742  0.50552212     1.05000
O153        O  0.84344128  0.71874888  0.41756718    -0.77600
C154        C  0.82784900  0.62470658  0.34014945     1.03300
Fe155      Fe  0.13743148  0.64150758  0.34276221     1.65800
Fe156      Fe  0.16885474  0.64755101  0.44305231     1.73200
Fe157      Fe  0.13586257  0.70244548  0.40715616     1.54400
O158        O  0.14661944  0.71459952  0.34052858    -0.81300
O159        O  0.15499613  0.66952257  0.50230271    -0.79600
O160        O  0.13490474  0.67731971  0.29732502    -0.83800
O161        O  0.10335519  0.64556418  0.36206609    -0.78700
O162        O  0.16775569  0.71741851  0.43403696    -0.80400
O163        O  0.14703651  0.61382202  0.45579220    -0.83200
C164        C  0.09226214  0.66809519  0.37261214     0.97600
C165        C  0.14161684  0.70328708  0.30085341     1.05000
O166        O  0.14721311  0.66385814  0.39779156    -1.12200
O167        O  0.18732128  0.62521660  0.39038679    -0.74600
O168        O  0.17121729  0.63693853  0.32094455    -0.78100
O169        O  0.10238042  0.69168476  0.38302912    -0.78800
C170        C  0.18839230  0.62831396  0.34520286     0.96500
O171        O  0.13851871  0.60248759  0.38060013    -0.76700
O172        O  0.19141565  0.67992447  0.43180673    -0.81900
C173        C  0.13757252  0.68578903  0.50880631     0.99100
C174        C  0.18780064  0.70625352  0.43823525     1.05000
O175        O  0.12467442  0.69342983  0.47466297    -0.77600
C176        C  0.13997884  0.59606806  0.42480832     1.03300
Fe177      Fe  0.63263277  0.36064820  0.83954984     1.65800
Fe178      Fe  0.66722032  0.35357823  0.93535653     1.73200
Fe179      Fe  0.63290088  0.29908248  0.90186588     1.54400
O180        O  0.59911412  0.30842780  0.87815348    -0.81300
O181        O  0.68915726  0.32084070  0.92095814    -0.79600
O182        O  0.59917811  0.35504803  0.86174156    -0.83800
O183        O  0.63042454  0.32512334  0.79336532    -0.78700
O184        O  0.62226562  0.30863042  0.96927835    -0.80400
O185        O  0.68468190  0.37638677  0.88144018    -0.83200
C186        C  0.63799765  0.29949616  0.79578376     0.97600
C187        C  0.58850226  0.33185915  0.87018850     1.05000
O188        O  0.64415339  0.33788606  0.89230190    -1.12200
O189        O  0.64639355  0.38762886  0.95171447    -0.74600
O190        O  0.63358633  0.39899166  0.87908698    -0.78100
O191        O  0.64337028  0.28773806  0.83492313    -0.78800
C192        C  0.63712650  0.40511744  0.92292786     0.96500
O193        O  0.66543826  0.36736684  0.81420941    -0.76700
O194        O  0.65391620  0.33119224  0.99489654    -0.81900
C195        C  0.68518249  0.29485392  0.93031153     0.99100
C196        C  0.63593308  0.31580587  0.00251433     1.05000
O197        O  0.66480920  0.28422192  0.92868350    -0.77600
C198        C  0.68353079  0.37549951  0.83598786     1.03300
Fe199      Fe  0.37592663  0.35971967  0.84386578     1.65800
Fe200      Fe  0.34400240  0.35759801  0.94351471     1.73200
Fe201      Fe  0.37291537  0.29918243  0.90830927     1.54400
O202        O  0.36111877  0.28803243  0.84185470    -0.81300
O203        O  0.35660110  0.33474821  0.00282727    -0.79600
O204        O  0.37706485  0.32329579  0.79977795    -0.83800
O205        O  0.40962172  0.35251046  0.86477800    -0.78700
O206        O  0.34038279  0.28764692  0.93660873    -0.80400
O207        O  0.36781955  0.38948599  0.95555450    -0.83200
C208        C  0.41874201  0.32829831  0.87347971     0.97600
C209        C  0.36849041  0.29815598  0.80281822     1.05000
O210        O  0.36444833  0.33882142  0.89880822    -1.12200
O211        O  0.32714711  0.38106572  0.89010940    -0.74600
O212        O  0.34244512  0.36660411  0.82134414    -0.78100
O213        O  0.40666523  0.30601641  0.88276672    -0.78800
C214        C  0.32572691  0.37686412  0.84523593     0.96500
O215        O  0.37645327  0.39936838  0.87999155    -0.76700
O216        O  0.31932960  0.32739077  0.93300789    -0.81900
C217        C  0.37292054  0.31680774  0.00918011     0.99100
C218        C  0.32114483  0.30083604  0.94006074     1.05000
O219        O  0.38514833  0.30773533  0.97504339    -0.77600
C220        C  0.37515888  0.40659949  0.92383648     1.03300
Fe221      Fe  0.37420247  0.14328779  0.34439046     1.65800
Fe222      Fe  0.34190310  0.14758569  0.44389186     1.73200
Fe223      Fe  0.37205969  0.20501542  0.40629405     1.54400
O224        O  0.40568712  0.19756097  0.38155028    -0.81300
O225        O  0.31797855  0.17845358  0.43245414    -0.79600
O226        O  0.40824715  0.15107969  0.36361906    -0.83800
O227        O  0.37504449  0.17858405  0.29825839    -0.78700
O228        O  0.38395546  0.19787270  0.47391755    -0.80400
O229        O  0.32407695  0.12420269  0.39127591    -0.83200
C230        C  0.36652484  0.20365292  0.30035716     0.97600
C231        C  0.41756731  0.17536583  0.37180517     1.05000
O232        O  0.36300513  0.16520799  0.39861091    -1.12200
O233        O  0.36461199  0.11487656  0.45729178    -0.74600
O234        O  0.37461774  0.10445279  0.38264409    -0.78100
O235        O  0.36032657  0.21492796  0.33929619    -0.78800
C236        C  0.37237775  0.09757249  0.42648329     0.96500
O237        O  0.34066361  0.13579155  0.32219374    -0.76700
O238        O  0.35563598  0.17030667  0.50250865    -0.81900
C239        C  0.32036037  0.20517404  0.43640134     0.99100
C240        C  0.37231959  0.18799276  0.50851254     1.05000
O241        O  0.33988764  0.21774429  0.43311913    -0.77600
C242        C  0.32338127  0.12680015  0.34597219     1.03300
Fe243      Fe  0.63053460  0.14084003  0.33971715     1.65800
Fe244      Fe  0.66602735  0.14879536  0.43384798     1.73200
Fe245      Fe  0.63313936  0.20364914  0.39864081     1.54400
O246        O  0.64281358  0.21321448  0.33054611    -0.81300
O247        O  0.65464950  0.17312755  0.49275279    -0.79600
O248        O  0.62840717  0.17555301  0.29149595    -0.83800
O249        O  0.59743693  0.14785220  0.36242550    -0.78700
O250        O  0.66612505  0.21792922  0.42180270    -0.80400
O251        O  0.64406660  0.11644349  0.45345260    -0.83200
C252        C  0.58741615  0.17155387  0.36959738     0.97600
C253        C  0.63654830  0.20103167  0.29235433     1.05000
O254        O  0.64303631  0.16434799  0.39082264    -1.12200
O255        O  0.68175817  0.12384741  0.38106917    -0.74600
O256        O  0.66297083  0.13314197  0.31353102    -0.78100
O257        O  0.59867433  0.19467998  0.37764504    -0.78800
C258        C  0.68083595  0.12485553  0.33566923     0.96500
O259        O  0.63123833  0.10306311  0.38171236    -0.76700
O260        O  0.68890481  0.17990571  0.41528400    -0.81900
C261        C  0.63724899  0.18929201  0.50019638     0.99100
C262        C  0.68614327  0.20637580  0.42174767     1.05000
O263        O  0.62337113  0.19605245  0.46719656    -0.77600
C264        C  0.63471649  0.09815372  0.42609549     1.03300
Fe265      Fe  0.87771597  0.36150194  0.64695672     1.65800
Fe266      Fe  0.83977326  0.35520798  0.55628259     1.73200
Fe267      Fe  0.87223891  0.29864924  0.58790189     1.54400
O268        O  0.90715369  0.30669364  0.60399669    -0.81300
O269        O  0.81664990  0.32412665  0.57419898    -0.79600
O270        O  0.91032910  0.35320659  0.62111393    -0.83800
O271        O  0.88020189  0.32676625  0.69443615    -0.78700
O272        O  0.88004963  0.30555323  0.51774397    -0.80400
O273        O  0.82512189  0.37933877  0.61123947    -0.83200
C274        C  0.87258990  0.30107187  0.69497149     0.97600
C275        C  0.91930784  0.32915514  0.61114180     1.05000
O276        O  0.86339724  0.33847201  0.59692123    -1.12200
O277        O  0.86157529  0.38752809  0.53617388    -0.74600
O278        O  0.87729876  0.39960097  0.60593771    -0.78100
O279        O  0.86492980  0.28878595  0.65780477    -0.78800
C280        C  0.87263938  0.40495980  0.56224119     0.96500
O281        O  0.84586171  0.37020614  0.67637486    -0.76700
O282        O  0.85017625  0.33241058  0.49550957    -0.81900
C283        C  0.81895056  0.29753678  0.56817662     0.99100
C284        C  0.86673524  0.31542746  0.48584570     1.05000
O285        O  0.83866732  0.28533784  0.56855387    -0.77600
C286        C  0.82730394  0.37835969  0.65642627     1.03300
Fe287      Fe  0.13343479  0.36236044  0.65128653     1.65800
Fe288      Fe  0.16809553  0.35519798  0.55620207     1.73200
Fe289      Fe  0.13352888  0.30054534  0.58827552     1.54400
O290        O  0.14106216  0.28927572  0.65686638    -0.81300
O291        O  0.15706364  0.33198943  0.49630958    -0.79600
O292        O  0.13003983  0.32751041  0.69822763    -0.83800
O293        O  0.09975855  0.35716365  0.62886007    -0.78700
O294        O  0.16642205  0.28549889  0.56904706    -0.80400
O295        O  0.14675654  0.38827140  0.53781257    -0.83200
C296        C  0.08898296  0.33459532  0.61631831     0.97600
C297        C  0.13605403  0.30133654  0.69582750     1.05000
O298        O  0.14468006  0.33935875  0.59836494    -1.12200
O299        O  0.18405755  0.37952881  0.60926944    -0.74600
O300        O  0.16670439  0.36783280  0.67712900    -0.78100
O301        O  0.09933538  0.31137354  0.60558592    -0.78800
C302        C  0.18435957  0.37649102  0.65432946     0.96500
O303        O  0.13529275  0.40050024  0.61100923    -0.76700
O304        O  0.19012652  0.32324354  0.57417672    -0.81900
C305        C  0.14006274  0.31550444  0.48694152     0.99100
C306        C  0.18663193  0.29664893  0.57004380     1.05000
O307        O  0.12554094  0.30819947  0.51844894    -0.77600
C308        C  0.13839489  0.40629613  0.56685416     1.03300
Fe309      Fe  0.13244131  0.13718528  0.14745810     1.65800
Fe310      Fe  0.16737997  0.14941159  0.05337017     1.73200
Fe311      Fe  0.13577870  0.20318501  0.09834851     1.54400
O312        O  0.10152196  0.19321121  0.11559825    -0.81300
O313        O  0.19077075  0.17953743  0.07364801    -0.79600
O314        O  0.09898930  0.14585681  0.12613587    -0.83800
O315        O  0.13034473  0.16884785  0.20073237    -0.78700
O316        O  0.12623770  0.20127698  0.02844661    -0.80400
O317        O  0.18383450  0.12276030  0.10288488    -0.83200
C318        C  0.13817158  0.19433204  0.20402825     0.97600
C319        C  0.08971018  0.17022250  0.11969636     1.05000
O320        O  0.14491009  0.16321394  0.09931911    -1.12200
O321        O  0.14536394  0.11779609  0.03083923    -0.74600
O322        O  0.13257419  0.10151449  0.10070757    -0.78100
O323        O  0.14490793  0.20835975  0.16804757    -0.78800
C324        C  0.13584432  0.09850673  0.05584220     0.96500
O325        O  0.16549145  0.12871117  0.17188840    -0.76700
O326        O  0.15494929  0.17555437  0.99779014    -0.81900
C327        C  0.18844250  0.20630261  0.07627384     0.99100
C328        C  0.13828147  0.19322579  0.99334263     1.05000
O329        O  0.16877256  0.21832159  0.07992548    -0.77600
C330        C  0.18361643  0.12271698  0.14836768     1.03300
Fe331      Fe  0.87613784  0.14208148  0.15105790     1.65800
Fe332      Fe  0.84037607  0.14804762  0.05707710     1.73200
Fe333      Fe  0.87590049  0.20299741  0.08618185     1.54400
O334        O  0.86898130  0.21559771  0.15506160    -0.81300
O335        O  0.85252340  0.16831669  0.99496194    -0.79600
O336        O  0.88123491  0.17750310  0.19511903    -0.83800
O337        O  0.90919930  0.14556943  0.12578194    -0.78700
O338        O  0.84327678  0.21866837  0.06617340    -0.80400
O339        O  0.86078337  0.11322182  0.04209412    -0.83200
C340        C  0.92023139  0.16795727  0.11369573     0.97600
C341        C  0.87526550  0.20363793  0.19345268     1.05000
O342        O  0.86425819  0.16445266  0.09780413    -1.12200
O343        O  0.82366295  0.12695074  0.11363142    -0.74600
O344        O  0.84357948  0.13825892  0.17903866    -0.78100
O345        O  0.91014806  0.19151524  0.10355862    -0.78800
C346        C  0.82517221  0.12978341  0.15877954     0.96500
O347        O  0.87300553  0.10286073  0.11535102    -0.76700
O348        O  0.81882634  0.18162527  0.06978668    -0.81900
C349        C  0.86940918  0.18487632  0.98473097     0.99100
C350        C  0.82288009  0.20808550  0.06453837     1.05000
O351        O  0.88329205  0.19418357  0.01622326    -0.77600
C352        C  0.86958622  0.09599900  0.07196051     1.03300
C353        C  0.98540879  0.15239986  0.12024885     0.16300
C354        C  0.00723146  0.14012998  0.12746829    -0.32700
C355        C  0.02674433  0.15753219  0.12040831     0.20700
C356        C  0.02463588  0.18591069  0.10669024     0.02900
C357        C  0.00277059  0.19816255  0.09919843    -0.22400
C358        C  0.98321335  0.18075053  0.10639397     0.12100
S359        S  0.95976102  0.13493437  0.12815415    -0.06100
C360        C  0.94573672  0.16613165  0.11280569    -0.09600
C361        C  0.96043083  0.18878651  0.10192845    -0.26200
S362        S  0.05044864  0.20349847  0.10071162    -0.03400
C363        C  0.06425097  0.17225464  0.11673354    -0.16800
C364        C  0.04941052  0.14953409  0.12607962    -0.14800
H365        H  0.00891702  0.11802030  0.13845856     0.20600
H366        H  0.00107994  0.22033723  0.08860401     0.16600
H367        H  0.95477622  0.21003239  0.09199901     0.19100
H368        H  0.05489598  0.12833522  0.13669980     0.12500
C369        C  0.13066224  0.22954847  0.32681840     0.16300
C370        C  0.12303219  0.23837519  0.37190109    -0.32700
C371        C  0.13119574  0.26475930  0.38918307     0.20700
C372        C  0.14654440  0.28147954  0.36322535     0.02900
C373        C  0.15403788  0.27276599  0.31800131    -0.22400
C374        C  0.14565781  0.24655197  0.30049628     0.12100
S375        S  0.12226601  0.19867172  0.29867646    -0.06100
C376        C  0.13870769  0.20915966  0.25045394    -0.09600
C377        C  0.15035006  0.23495514  0.25680895    -0.26200
S378        S  0.15570324  0.31172393  0.39214995    -0.03400
C379        C  0.13844987  0.30190083  0.43959995    -0.16800
C380        C  0.12624914  0.27656087  0.43264025    -0.14800
H381        H  0.11123434  0.22527794  0.39260114     0.20600
H382        H  0.16593683  0.28578805  0.29741072     0.16600
H383        H  0.16114645  0.24517989  0.23015738     0.19100
H384        H  0.11539604  0.26636111  0.45921665     0.12500
C385        C  0.12405988  0.24110084  0.88638377     0.16300
C386        C  0.11733324  0.26414443  0.85748971    -0.32700
C387        C  0.12787987  0.26682877  0.81267531     0.20700
C388        C  0.14394775  0.24697352  0.79695966     0.02900
C389        C  0.15067741  0.22396133  0.82586028    -0.22400
C390        C  0.14054688  0.22165935  0.87111004     0.12100
S391        S  0.11453700  0.23538367  0.94305896    -0.06100
C392        C  0.13348387  0.20698104  0.94700686    -0.09600
C393        C  0.14601586  0.20195551  0.90570787    -0.26200
S394        S  0.15436728  0.25346247  0.74118291    -0.03400
C395        C  0.13728294  0.28361438  0.73917365    -0.16800
C396        C  0.12413675  0.28815771  0.77980137    -0.14800
H397        H  0.10479293  0.27962963  0.86982599     0.20600
H398        H  0.16356004  0.20880378  0.81389958     0.16600
H399        H  0.15922591  0.18573279  0.90199094     0.19100
H400        H  0.11213163  0.30566522  0.78453668     0.12500
C401        C  0.88382745  0.24026534  0.31459255     0.16300
C402        C  0.89042323  0.24768431  0.36097300    -0.32700
C403        C  0.88048355  0.27214787  0.38103668     0.20700
C404        C  0.86464286  0.28865896  0.35622181     0.02900
C405        C  0.85843135  0.28160920  0.30918083    -0.22400
C406        C  0.86839685  0.25700259  0.28903923     0.12100
S407        S  0.89302725  0.21042579  0.28536492    -0.06100
C408        C  0.87621958  0.22064843  0.23764399    -0.09600
C409        C  0.86414457  0.24597858  0.24445269    -0.26200
S410        S  0.85295838  0.31588284  0.38918430    -0.03400
C411        C  0.86970301  0.30479812  0.43669175    -0.16800
C412        C  0.88371038  0.28153235  0.42670151    -0.14800
H413        H  0.90235329  0.23451732  0.38105489     0.20600
H414        H  0.84595002  0.29426755  0.28963957     0.16600
H415        H  0.85259998  0.25550828  0.21852278     0.19100
H416        H  0.89468606  0.27086814  0.45246670     0.12500
C417        C  0.88229325  0.26411833  0.81612089     0.16300
C418        C  0.88985296  0.25599707  0.86163252    -0.32700
C419        C  0.88084462  0.23061745  0.88103124     0.20700
C420        C  0.86491202  0.21397904  0.85644833     0.02900
C421        C  0.85768313  0.22180090  0.81034363    -0.22400
C422        C  0.86676036  0.24725086  0.79084571     0.12100
S423        S  0.89070621  0.29464999  0.78722747    -0.06100
C424        C  0.87344192  0.28453127  0.73996299    -0.09600
C425        C  0.86174149  0.25876401  0.74690556    -0.26200
S426        S  0.85442624  0.18551950  0.88864984    -0.03400
C427        C  0.87183602  0.19613671  0.93559832    -0.16800
C428        C  0.88514303  0.22027137  0.92586726    -0.14800
H429        H  0.90192220  0.26920178  0.88149840     0.20600
H430        H  0.84517304  0.20897453  0.79096272     0.16600
H431        H  0.85020604  0.24896098  0.72112833     0.19100
H432        H  0.89626205  0.23092111  0.95150260     0.12500
C433        C  0.98483824  0.31437825  0.60052060     0.16300
C434        C  0.00703954  0.30275590  0.59402090    -0.32700
C435        C  0.02624378  0.32029671  0.60446217     0.20700
C436        C  0.02339241  0.34813037  0.62045477     0.02900
C437        C  0.00128794  0.35972456  0.62673501    -0.22400
C438        C  0.98216556  0.34224124  0.61644374     0.12100
S439        S  0.95922453  0.29667314  0.59092555    -0.06100
C440        C  0.94483473  0.32721424  0.60851159    -0.09600
C441        C  0.95935913  0.34972727  0.62093797    -0.26200
S442        S  0.04860940  0.36596534  0.63174234    -0.03400
C443        C  0.06341208  0.33566350  0.61492527    -0.16800
C444        C  0.04924966  0.31298169  0.60115660    -0.14800
H445        H  0.00924092  0.28098377  0.58170459     0.20600
H446        H  0.99908548  0.38143253  0.63938565     0.16600
H447        H  0.95354048  0.37046731  0.63315605     0.19100
H448        H  0.05542892  0.29226270  0.58964855     0.12500
C449        C  0.72970245  0.11261273  0.24550422     0.16300
C450        C  0.74321370  0.11089876  0.20397763    -0.32700
C451        C  0.76714763  0.11570919  0.20841543     0.20700
C452        C  0.77714249  0.12158688  0.25234500     0.02900
C453        C  0.76372349  0.12277108  0.29387763    -0.22400
C454        C  0.73982509  0.11824751  0.28939402     0.12100
S455        S  0.70015710  0.11070106  0.24704312    -0.06100
C456        C  0.70150211  0.11756713  0.30746918    -0.09600
C457        C  0.72378195  0.12070415  0.32515394    -0.26200
S458        S  0.80607769  0.12869577  0.25013922    -0.03400
C459        C  0.80488822  0.12380376  0.18923473    -0.16800
C460        C  0.78303818  0.11680633  0.17195829    -0.14800
H461        H  0.73531761  0.10701367  0.16953214     0.20600
H462        H  0.77147934  0.12793559  0.32799877     0.16600
H463        H  0.72794053  0.12646247  0.36159360     0.19100
H464        H  0.77884582  0.11373764  0.13465529     0.12500
C465        C  0.74560434  0.23335950  0.45935405     0.16300
C466        C  0.76909479  0.23473810  0.47175889    -0.32700
C467        C  0.77557641  0.25406256  0.50757196     0.20700
C468        C  0.75938785  0.27141416  0.52969132     0.02900
C469        C  0.73589361  0.27004216  0.51726487    -0.22400
C470        C  0.72938820  0.25063475  0.48156740     0.12100
S471        S  0.73413012  0.20970944  0.41966558    -0.06100
C472        C  0.70707975  0.22285116  0.43357711    -0.09600
C473        C  0.70722029  0.24499552  0.46639698    -0.26200
S474        S  0.77088806  0.29495621  0.56958694    -0.03400
C475        C  0.79786643  0.28148248  0.55612329    -0.16800
C476        C  0.79769864  0.25943231  0.52313515    -0.14800
H477        H  0.78173496  0.22120086  0.45446525     0.20600
H478        H  0.72325051  0.28354129  0.53462600     0.16600
H479        H  0.69185298  0.25469359  0.48136364     0.19100
H480        H  0.81305234  0.24958066  0.50838177     0.12500
C481        C  0.48306263  0.19263395  0.37427670     0.16300
C482        C  0.50521485  0.20481561  0.38042885    -0.32700
C483        C  0.52455817  0.18731656  0.37196112     0.20700
C484        C  0.52179721  0.15914208  0.35746006     0.02900
C485        C  0.49976197  0.14714386  0.35079950    -0.22400
C486        C  0.48051790  0.16442365  0.35987454     0.12100
S487        S  0.45736352  0.20963136  0.38462800    -0.06100
C488        C  0.44310011  0.17825114  0.36994453    -0.09600
C489        C  0.45772768  0.15608377  0.35720648    -0.26200
S490        S  0.54701927  0.14098897  0.35022767    -0.03400
C491        C  0.56180280  0.17148372  0.36712671    -0.16800
C492        C  0.54759660  0.19464796  0.37738363    -0.14800
H493        H  0.50726456  0.22676192  0.39209037     0.20600
H494        H  0.49771023  0.12505865  0.33985902     0.16600
H495        H  0.45201510  0.13483120  0.34711345     0.19100
H496        H  0.55373558  0.21549031  0.38869065     0.12500
C497        C  0.24515462  0.11680926  0.20085119     0.16300
C498        C  0.26914108  0.11860954  0.20864919    -0.32700
C499        C  0.27713880  0.11790248  0.25596765     0.20700
C500        C  0.26196891  0.11513873  0.29397150     0.02900
C501        C  0.23791089  0.11337342  0.28617483    -0.22400
C502        C  0.22987367  0.11447942  0.23875799     0.12100
S503        S  0.23206604  0.11892302  0.14622495    -0.06100
C504        C  0.20554468  0.11712565  0.17441463    -0.09600
C505        C  0.20711618  0.11472686  0.22383631    -0.26200
S506        S  0.27524844  0.11575753  0.34871614    -0.03400
C507        C  0.30152157  0.12022579  0.32013053    -0.16800
C508        C  0.29974137  0.12085078  0.27068351    -0.14800
H509        H  0.28104490  0.12109778  0.17910154     0.20600
H510        H  0.22595816  0.11185003  0.31580879     0.16600
H511        H  0.19239508  0.11429086  0.24772827     0.19100
H512        H  0.31417985  0.12424099  0.24668190     0.12500
C513        C  0.26082641  0.23169115  0.47009003     0.16300
C514        C  0.23704862  0.23385386  0.47856993    -0.32700
C515        C  0.22997121  0.25177342  0.51566077     0.20700
C516        C  0.24586992  0.26685931  0.54311406     0.02900
C517        C  0.26967571  0.26454929  0.53483599    -0.22400
C518        C  0.27674248  0.24680256  0.49746161     0.12100
S519        S  0.27281779  0.20986746  0.42852969    -0.06100
C520        C  0.29956152  0.22118357  0.44827099    -0.09600
C521        C  0.29910707  0.24115870  0.48459699    -0.26200
S522        S  0.23379105  0.28968778  0.58307669    -0.03400
C523        C  0.20706162  0.27907545  0.56204955    -0.16800
C524        C  0.20759212  0.25830104  0.52702197    -0.14800
H525        H  0.22461136  0.22223305  0.45699315     0.20600
H526        H  0.28210362  0.27642285  0.55604991     0.16600
H527        H  0.31425318  0.24931150  0.50302472     0.19100
H528        H  0.19257071  0.25056539  0.50768100     0.12500
C529        C  0.36240748  0.24187436  0.70346260     0.16300
C530        C  0.35603950  0.21877081  0.67416503    -0.32700
C531        C  0.36806642  0.21524912  0.63106314     0.20700
C532        C  0.38602715  0.23351223  0.61842301     0.02900
C533        C  0.39246268  0.25650104  0.64778848    -0.22400
C534        C  0.38000554  0.26050038  0.69014938     0.12100
S535        S  0.34968829  0.25016546  0.75664871    -0.06100
C536        C  0.36788873  0.27945382  0.76045716    -0.09600
C537        C  0.38308987  0.28226396  0.72246284    -0.26200
S538        S  0.39737081  0.22705821  0.56341224    -0.03400
C539        C  0.37718849  0.20002814  0.55625217    -0.16800
C540        C  0.36300836  0.19581846  0.59565250    -0.14800
H541        H  0.34192264  0.20462417  0.68394663     0.20600
H542        H  0.40611344  0.27116635  0.63732607     0.16600
H543        H  0.39607315  0.29894192  0.71923167     0.19100
H544        H  0.34867054  0.18083013  0.59696500     0.12500
C545        C  0.38293103  0.26729685  0.11535628     0.16300
C546        C  0.38873149  0.24370680  0.14370666    -0.32700
C547        C  0.37593690  0.23923298  0.18546681     0.20700
C548        C  0.35829257  0.25762421  0.19873573     0.02900
C549        C  0.35224998  0.28102087  0.16994958    -0.22400
C550        C  0.36496679  0.28538409  0.12790439     0.12100
S551        S  0.39575292  0.27542651  0.06242347    -0.06100
C552        C  0.37633403  0.30313733  0.05604878    -0.09600
C553        C  0.36111958  0.30610874  0.09403263    -0.26200
S554        S  0.34594321  0.24956066  0.25240385    -0.03400
C555        C  0.36463466  0.22097986  0.25672705    -0.16800
C556        C  0.37939567  0.21787300  0.21819462    -0.14800
H557        H  0.40258531  0.22940342  0.13355855     0.20600
H558        H  0.33829654  0.29521214  0.17993160     0.16600
H559        H  0.34707596  0.32136876  0.09537831     0.19100
H560        H  0.39271933  0.20171813  0.21541764     0.12500
C561        C  0.26223811  0.27736243  0.98609083     0.16300
C562        C  0.23898811  0.27631720  0.99981869    -0.32700
C563        C  0.23235754  0.25472752  0.03152570     0.20700
C564        C  0.24827214  0.23526708  0.04930552     0.02900
C565        C  0.27167790  0.23669082  0.03633352    -0.22400
C566        C  0.27822588  0.25799711  0.00384666     0.12100
S567        S  0.27343820  0.30193007  0.94790021    -0.06100
C568        C  0.30008023  0.28615625  0.95592901    -0.09600
C569        C  0.30007537  0.26280043  0.98633450    -0.26200
S570        S  0.23632117  0.20850629  0.08231377    -0.03400
C571        C  0.20957163  0.22333032  0.07098111    -0.16800
C572        C  0.21012619  0.24836049  0.04477048    -0.14800
H573        H  0.22649124  0.29121652  0.98538071     0.20600
H574        H  0.28405473  0.22128786  0.04968250     0.16600
H575        H  0.31535721  0.25108701  0.99710526     0.19100
H576        H  0.19495914  0.25948384  0.03175669     0.12500
C577        C  0.24603625  0.38437298  0.70434260     0.16300
C578        C  0.27010723  0.38376071  0.71083080    -0.32700
C579        C  0.27860853  0.38467115  0.75767854     0.20700
C580        C  0.26383615  0.38667811  0.79646354     0.02900
C581        C  0.23968070  0.38722159  0.78997999    -0.22400
C582        C  0.23114015  0.38571448  0.74303149     0.12100
S583        S  0.23247231  0.38195142  0.65039623    -0.06100
C584        C  0.20630982  0.38206978  0.67997955    -0.09600
C585        C  0.20826038  0.38423213  0.72928611    -0.26200
S586        S  0.27772068  0.38651704  0.85045575    -0.03400
C587        C  0.30366563  0.38305038  0.82043796    -0.16800
C588        C  0.30139363  0.38251453  0.77115648    -0.14800
H589        H  0.28170616  0.38194995  0.68066274     0.20600
H590        H  0.22805910  0.38805836  0.82022828     0.16600
H591        H  0.19377400  0.38393245  0.75378215     0.19100
H592        H  0.31560981  0.37966795  0.74646144     0.12500
C593        C  0.73016478  0.24868868  0.99400976     0.16300
C594        C  0.74194491  0.22947686  0.02360542    -0.32700
C595        C  0.76571394  0.23413512  0.03083972     0.20700
C596        C  0.77726209  0.25703385  0.01011238     0.02900
C597        C  0.76544838  0.27635977  0.98083883    -0.22400
C598        C  0.74175897  0.27149114  0.97312671     0.12100
S599        S  0.70120679  0.24718161  0.98120769    -0.06100
C600        C  0.70478310  0.27773354  0.94759808    -0.09600
C601        C  0.72734779  0.28806643  0.94627124    -0.26200
S602        S  0.80642731  0.25771639  0.02056835    -0.03400
C603        C  0.80311518  0.22637702  0.05217276    -0.16800
C604        C  0.78041672  0.21665963  0.05539992    -0.14800
H605        H  0.73306131  0.21147312  0.03975183     0.20600
H606        H  0.77439510  0.29413987  0.96415663     0.16600
H607        H  0.73274740  0.30750512  0.92831383     0.19100
H608        H  0.77515796  0.19678353  0.07216103     0.12500
C609        C  0.73163375  0.38849455  0.74361874     0.16300
C610        C  0.74484944  0.38942619  0.70165891    -0.32700
C611        C  0.76905639  0.38939456  0.70618797     0.20700
C612        C  0.77964092  0.38891485  0.75057613     0.02900
C613        C  0.76640329  0.38857330  0.79260437    -0.22400
C614        C  0.74216834  0.38812746  0.78807415     0.12100
S615        S  0.70220163  0.38531301  0.74535789    -0.06100
C616        C  0.70394767  0.38318869  0.80672660    -0.09600
C617        C  0.72634733  0.38537149  0.82451623    -0.26200
S618        S  0.80914018  0.38626941  0.74836410    -0.03400
C619        C  0.80725661  0.38557281  0.68692600    -0.16800
C620        C  0.78479527  0.38778141  0.66956370    -0.14800
H621        H  0.73661873  0.38901803  0.66694797     0.20600
H622        H  0.77463875  0.38751818  0.82726230     0.16600
H623        H  0.73092411  0.38343485  0.86183425     0.19100
H624        H  0.78009962  0.38652524  0.63221644     0.12500
C625        C  0.62623344  0.23863551  0.60633039     0.16300
C626        C  0.61981526  0.26186200  0.63486791    -0.32700
C627        C  0.63099122  0.26512000  0.67884184     0.20700
C628        C  0.64760670  0.24580628  0.69407394     0.02900
C629        C  0.65430555  0.22274191  0.66512665    -0.22400
C630        C  0.64330488  0.21970394  0.62071706     0.12100
S631        S  0.61505926  0.23179864  0.55141644    -0.06100
C632        C  0.63397633  0.20348905  0.54663988    -0.09600
C633        C  0.64794421  0.19944603  0.58641060    -0.26200
S634        S  0.65811796  0.25265413  0.74981988    -0.03400
C635        C  0.64019410  0.28209520  0.75224655    -0.16800
C636        C  0.62690358  0.28623986  0.71173273    -0.14800
H637        H  0.60671136  0.27682615  0.62317662     0.20600
H638        H  0.66749932  0.20786998  0.67669500     0.16600
H639        H  0.66134582  0.18339864  0.58927338     0.19100
H640        H  0.61430508  0.30313923  0.70732328     0.12500
C641        C  0.62169278  0.26920730  0.11078891     0.16300
C642        C  0.61338625  0.24721447  0.14036220    -0.32700
C643        C  0.62690355  0.23955134  0.17991148     0.20700
C644        C  0.64753556  0.25361904  0.19000081     0.02900
C645        C  0.65588319  0.27550833  0.16031745    -0.22400
C646        C  0.64254609  0.28286456  0.12037876     0.12100
S647        S  0.60870640  0.28010495  0.05933920    -0.06100
C648        C  0.63187089  0.30288726  0.04980765    -0.09600
C649        C  0.64843183  0.30234823  0.08567928    -0.26200
S650        S  0.66083652  0.24227844  0.24083848    -0.03400
C651        C  0.63862581  0.21791685  0.24826870    -0.16800
C652        C  0.62182074  0.21870628  0.21296884    -0.14800
H653        H  0.59726248  0.23627769  0.13247740     0.20600
H654        H  0.67216736  0.28617369  0.16782795     0.16600
H655        H  0.66464227  0.31407657  0.08482273     0.19100
H656        H  0.60625951  0.20569259  0.21271781     0.12500
C657        C  0.52302431  0.34634601  0.86823695     0.16300
C658        C  0.50106226  0.35891690  0.86646478    -0.32700
C659        C  0.48171879  0.34080758  0.86917704     0.20700
C660        C  0.48408273  0.31141363  0.87346656     0.02900
C661        C  0.50613147  0.29877694  0.87511497    -0.22400
C662        C  0.52555476  0.31696117  0.87249815     0.12100
S663        S  0.54844563  0.36486665  0.86553820    -0.06100
C664        C  0.56291350  0.33278707  0.87027291    -0.09600
C665        C  0.54849173  0.30899315  0.87378987    -0.26200
S666        S  0.45831132  0.29333574  0.87690415    -0.03400
C667        C  0.44424625  0.32576112  0.87247933    -0.16800
C668        C  0.45897943  0.34914617  0.86841564    -0.14800
H669        H  0.49913888  0.38187520  0.86323940     0.20600
H670        H  0.50805322  0.27583215  0.87850013     0.16600
H671        H  0.55443710  0.28713234  0.87692216     0.19100
H672        H  0.45336047  0.37115831  0.86551670     0.12500
C673        C  0.13006499  0.48589273  0.53723970     0.16300
C674        C  0.12949594  0.51587027  0.53831474    -0.32700
C675        C  0.13079478  0.53047502  0.49463408     0.20700
C676        C  0.13204203  0.51595978  0.45161341     0.02900
C677        C  0.13249562  0.48595273  0.45051863    -0.22400
C678        C  0.13174918  0.47135191  0.49430626     0.12100
S679        S  0.13042511  0.46431914  0.58652363    -0.06100
C680        C  0.13343954  0.43537581  0.54901932    -0.09600
C681        C  0.13369352  0.44238159  0.50084247    -0.26200
S682        S  0.13459849  0.53773272  0.40276776    -0.03400
C683        C  0.13461225  0.56668398  0.44083562    -0.16800
C684        C  0.13224768  0.55952173  0.48867130    -0.14800
H685        H  0.12882241  0.52733805  0.57183517     0.20600
H686        H  0.13410798  0.47451317  0.41711556     0.16600
H687        H  0.13602077  0.42716303  0.47213931     0.19100
H688        H  0.13248746  0.57474531  0.51778774     0.12500
C689        C  0.88291756  0.47231666  0.48641922     0.16300
C690        C  0.88296027  0.49242168  0.44918278    -0.32700
C691        C  0.88325983  0.52153016  0.46139274     0.20700
C692        C  0.88385587  0.53016292  0.50869476     0.02900
C693        C  0.88445185  0.51002594  0.54594933    -0.22400
C694        C  0.88376614  0.48088343  0.53374451     0.12100
S695        S  0.87965357  0.43635150  0.47881503    -0.06100
C696        C  0.87924787  0.43255210  0.54006897    -0.09600
C697        C  0.88200872  0.45808355  0.56481389    -0.26200
S698        S  0.88167880  0.56628433  0.51629356    -0.03400
C699        C  0.87987774  0.56993085  0.45508797    -0.16800
C700        C  0.88130473  0.54427005  0.43039533    -0.14800
H701        H  0.88175049  0.48566106  0.41232303     0.20600
H702        H  0.88438807  0.51680235  0.58287624     0.16600
H703        H  0.88120239  0.46007951  0.60325073     0.19100
H704        H  0.87955457  0.54219769  0.39209345     0.12500
C705        C  0.98796144  0.68578131  0.38643233     0.16300
C706        C  0.01003588  0.69824528  0.39075324    -0.32700
C707        C  0.02933475  0.68091928  0.38162438     0.20700
C708        C  0.02673003  0.65242250  0.36888886     0.02900
C709        C  0.00466851  0.63994029  0.36469015    -0.22400
C710        C  0.98537647  0.65728460  0.37370309     0.12100
S711        S  0.96242052  0.70333115  0.39505670    -0.06100
C712        C  0.94798849  0.67200458  0.38117512    -0.09600
C713        C  0.96249597  0.64921403  0.37076302    -0.26200
S714        S  0.05221423  0.63499771  0.35929521    -0.03400
C715        C  0.06667439  0.66640478  0.37256978    -0.16800
C716        C  0.05222498  0.68909698  0.38379842    -0.14800
H717        H  0.01206935  0.72051743  0.40057992     0.20600
H718        H  0.00263293  0.61770339  0.35463643     0.16600
H719        H  0.95662887  0.62798729  0.36090113     0.19100
H720        H  0.05813199  0.71037742  0.39321965     0.12500
C721        C  0.88210177  0.98640279  0.95977894     0.16300
C722        C  0.88231615  0.01636166  0.95888668    -0.32700
C723        C  0.88042468  0.03080570  0.00250241     0.20700
C724        C  0.87932979  0.01617284  0.04547088     0.02900
C725        C  0.87936052  0.98611199  0.04644376    -0.22400
C726        C  0.88030906  0.97163274  0.00252411     0.12100
S727        S  0.88172287  0.96519817  0.91019702    -0.06100
C728        C  0.87817564  0.93605918  0.94708711    -0.09600
C729        C  0.87806269  0.94266807  0.99545915    -0.26200
S730        S  0.87602220  0.03785135  0.09419568    -0.03400
C731        C  0.87521590  0.06676697  0.05594749    -0.16800
C732        C  0.87802649  0.05974572  0.00827756    -0.14800
H733        H  0.88287108  0.02792233  0.92542517     0.20600
H734        H  0.87767839  0.97455025  0.07974588     0.16600
H735        H  0.87544408  0.92724912  0.02381139     0.19100
H736        H  0.87755978  0.07496364  0.97915253     0.12500
C737        C  0.88682613  0.76788474  0.67411969     0.16300
C738        C  0.89301930  0.76090966  0.62728269    -0.32700
C739        C  0.88466484  0.73503554  0.60850632     0.20700
C740        C  0.87090348  0.71667944  0.63516322     0.02900
C741        C  0.86527048  0.72325678  0.68261919    -0.22400
C742        C  0.87343386  0.74934897  0.70124859     0.12100
S743        S  0.89389993  0.79921075  0.70211006    -0.06100
C744        C  0.87878739  0.78723449  0.75117763    -0.09600
C745        C  0.86895669  0.76022882  0.74571455    -0.26200
S746        S  0.86046583  0.68792135  0.60376998    -0.03400
C747        C  0.87482205  0.70085263  0.55423915    -0.16800
C748        C  0.88729270  0.72582749  0.56251081    -0.14800
H749        H  0.90327075  0.77547805  0.60582854     0.20600
H750        H  0.85433407  0.70917301  0.70352587     0.16600
H751        H  0.85883134  0.74928169  0.77267604     0.19100
H752        H  0.89657225  0.73772979  0.53537463     0.12500
C753        C  0.86591500  0.78451445  0.13200324     0.16300
C754        C  0.85916092  0.77647477  0.17823687    -0.32700
C755        C  0.86854336  0.75119285  0.19724066     0.20700
C756        C  0.88384511  0.73452829  0.17136233     0.02900
C757        C  0.89086759  0.74280594  0.12549326    -0.22400
C758        C  0.88162128  0.76816468  0.10663273     0.12100
S759        S  0.85536058  0.81328489  0.10100640    -0.06100
C760        C  0.87251751  0.80336762  0.05347989    -0.09600
C761        C  0.88569031  0.77905723  0.06200306    -0.26200
S762        S  0.89282636  0.70427845  0.20034770    -0.03400
C763        C  0.87613209  0.71441427  0.24832008    -0.16800
C764        C  0.86418219  0.73985965  0.24150341    -0.14800
H765        H  0.84690486  0.78915535  0.19828256     0.20600
H766        H  0.90283687  0.72987729  0.10515111     0.16600
H767        H  0.89674491  0.76890371  0.03587104     0.19100
H768        H  0.85296610  0.74964645  0.26773140     0.12500
C769        C  0.12357151  0.97420272  0.99780420     0.16300
C770        C  0.12110679  0.99438348  0.03454128    -0.32700
C771        C  0.12359016  0.02342844  0.02284829     0.20700
C772        C  0.12767642  0.03198342  0.97624193     0.02900
C773        C  0.12942263  0.01181993  0.93916354    -0.22400
C774        C  0.12756577  0.98268107  0.95111425     0.12100
S775        S  0.12452865  0.93810078  0.00633571    -0.06100
C776        C  0.13052578  0.93407977  0.94644067    -0.09600
C777        C  0.13123070  0.95968003  0.92120207    -0.26200
S778        S  0.13266226  0.06783133  0.97019246    -0.03400
C779        C  0.12969067  0.07140583  0.03126766    -0.16800
C780        C  0.12442018  0.04596950  0.05451538    -0.14800
H781        H  0.11863907  0.98763345  0.07113846     0.20600
H782        H  0.13328635  0.01849112  0.90304006     0.16600
H783        H  0.13575951  0.96149705  0.88385322     0.19100
H784        H  0.12279141  0.04374975  0.09280821     0.12500
C785        C  0.14803733  0.74378410  0.70126597     0.16300
C786        C  0.15486271  0.72072173  0.67245962    -0.32700
C787        C  0.14283186  0.71624723  0.62953856     0.20700
C788        C  0.12451256  0.73367182  0.61650416     0.02900
C789        C  0.11772188  0.75677244  0.64524150    -0.22400
C790        C  0.13009237  0.76163779  0.68760379     0.12100
S791        S  0.16039091  0.75265313  0.75459414    -0.06100
C792        C  0.14158400  0.78117637  0.75818365    -0.09600
C793        C  0.12644986  0.78335515  0.71988356    -0.26200
S794        S  0.11285792  0.72569912  0.56219887    -0.03400
C795        C  0.13327919  0.69904737  0.55593789    -0.16800
C796        C  0.14793407  0.69627926  0.59499971    -0.14800
H797        H  0.16918038  0.70714463  0.68270736     0.20600
H798        H  0.10370994  0.77070396  0.63452582     0.16600
H799        H  0.11307141  0.79940309  0.71656063     0.19100
H800        H  0.16242423  0.68168537  0.59681059     0.12500
C801        C  0.15009154  0.75901101  0.20124000     0.16300
C802        C  0.15711601  0.78204955  0.17229626    -0.32700
C803        C  0.14476022  0.78687902  0.12983905     0.20700
C804        C  0.12596588  0.76984995  0.11754006     0.02900
C805        C  0.11905295  0.74677827  0.14626222    -0.22400
C806        C  0.13172533  0.74152416  0.18798148     0.12100
S807        S  0.16252087  0.74976465  0.25435308    -0.06100
C808        C  0.14314618  0.72161376  0.25810086    -0.09600
C809        C  0.12786293  0.71978321  0.22008060    -0.26200
S810        S  0.11386987  0.77805144  0.06389211    -0.03400
C811        C  0.13481877  0.80414127  0.05651628    -0.16800
C812        C  0.14991617  0.80672690  0.09497475    -0.14800
H813        H  0.17177454  0.79533200  0.18208615     0.20600
H814        H  0.10468318  0.73314244  0.13599557     0.16600
H815        H  0.11413269  0.70403546  0.21697613     0.19100
H816        H  0.16475747  0.82095345  0.09599390     0.12500
C817        C  0.02620407  0.81417903  0.87401563     0.16300
C818        C  0.00403358  0.80189583  0.87710840    -0.32700
C819        C  0.98494702  0.82037630  0.87552234     0.20700
C820        C  0.98786408  0.84967749  0.87021242     0.02900
C821        C  0.00996354  0.86188025  0.86642716    -0.22400
C822        C  0.02900455  0.84349691  0.86880395     0.12100
S823        S  0.05160448  0.79574871  0.87793808    -0.06100
C824        C  0.06610749  0.82794245  0.87294296    -0.09600
C825        C  0.05183419  0.85150978  0.86784607    -0.26200
S826        S  0.96274347  0.86858624  0.86962325    -0.03400
C827        C  0.94796478  0.83677077  0.87699157    -0.16800
C828        C  0.96201082  0.81278431  0.87943307    -0.14800
H829        H  0.00178239  0.77903523  0.88149935     0.20600
H830        H  0.01222640  0.88478333  0.86265538     0.16600
H831        H  0.05782560  0.87341259  0.86455350     0.19100
H832        H  0.95579434  0.79103059  0.88351308     0.12500
C833        C  0.38226521  0.48727559  0.94759256     0.16300
C834        C  0.38070314  0.51726229  0.94605617    -0.32700
C835        C  0.38241028  0.53226355  0.98941331     0.20700
C836        C  0.38613779  0.51812571  0.03218602     0.02900
C837        C  0.38786795  0.48821692  0.03364965    -0.22400
C838        C  0.38551881  0.47318055  0.99056804     0.12100
S839        S  0.37859642  0.46490506  0.89975388    -0.06100
C840        C  0.38079932  0.43625791  0.93831031    -0.09600
C841        C  0.38466900  0.44399969  0.98547619    -0.26200
S842        S  0.38651681  0.53994313  0.08114283    -0.03400
C843        C  0.38098894  0.56846979  0.04393134    -0.16800
C844        C  0.37948120  0.56116268  0.99591359    -0.14800
H845        H  0.37745882  0.52832932  0.91279565     0.20600
H846        H  0.39008945  0.47706664  0.06719184     0.16600
H847        H  0.38580218  0.42904634  0.01489606     0.19100
H848        H  0.37554957  0.57604063  0.96744313     0.12500
C849        C  0.27968201  0.75802382  0.01751225     0.16300
C850        C  0.26760288  0.77987139  0.99450396    -0.32700
C851        C  0.24491724  0.77389984  0.97977362     0.20700
C852        C  0.23452357  0.74753899  0.98779212     0.02900
C853        C  0.24657914  0.72571225  0.01091630    -0.22400
C854        C  0.26930649  0.73164115  0.02543596     0.12100
S855        S  0.30793607  0.76020824  0.03520648    -0.06100
C856        C  0.30578548  0.72499955  0.05255465    -0.09600
C857        C  0.28410102  0.71275626  0.04608790    -0.26200
S858        S  0.20646112  0.74513314  0.96892380    -0.03400
C859        C  0.20879667  0.78012976  0.95043884    -0.16800
C860        C  0.23032984  0.79255262  0.95791463    -0.14800
H861        H  0.27558223  0.80051300  0.98796703     0.20600
H862        H  0.23865849  0.70499978  0.01713016     0.16600
H863        H  0.27976772  0.69060816  0.05340770     0.19100
H864        H  0.23475978  0.81458161  0.94989085     0.12500
C865        C  0.26691989  0.61699272  0.20165214     0.16300
C866        C  0.24289817  0.61581084  0.20944732    -0.32700
C867        C  0.23491005  0.61825870  0.25662570     0.20700
C868        C  0.25016516  0.62124420  0.29451135     0.02900
C869        C  0.27418774  0.62244877  0.28671488    -0.22400
C870        C  0.28215540  0.62043071  0.23945387     0.12100
S871        S  0.28001274  0.61614398  0.14687726    -0.06100
C872        C  0.30636189  0.62085326  0.17498442    -0.09600
C873        C  0.30475361  0.62264063  0.22441826    -0.26200
S874        S  0.23695384  0.62471202  0.34885914    -0.03400
C875        C  0.21052448  0.62271099  0.32024382    -0.16800
C876        C  0.21218057  0.61920821  0.27112362    -0.14800
H877        H  0.23092239  0.61374416  0.17989907     0.20600
H878        H  0.28612582  0.62544463  0.31611301     0.16600
H879        H  0.31928362  0.62643557  0.24806639     0.19100
H880        H  0.19750714  0.61823421  0.24708932     0.12500
C881        C  0.62774742  0.48448335  0.95285417     0.16300
C882        C  0.62750211  0.51446150  0.95180704    -0.32700
C883        C  0.62889591  0.52904369  0.99547524     0.20700
C884        C  0.62974616  0.51454213  0.03856214     0.02900
C885        C  0.62972376  0.48448149  0.03966569    -0.22400
C886        C  0.62908611  0.46987757  0.99580122     0.12100
S887        S  0.62854211  0.46302550  0.90346433    -0.06100
C888        C  0.63147005  0.43401050  0.94085269    -0.09600
C889        C  0.63118598  0.44089982  0.98912441    -0.26200
S890        S  0.63275643  0.53640331  0.08731478    -0.03400
C891        C  0.63358442  0.56529816  0.04901192    -0.16800
C892        C  0.63104306  0.55803876  0.00125627    -0.14800
H893        H  0.62722235  0.52594984  0.91826347     0.20600
H894        H  0.63112746  0.47300407  0.07309312     0.16600
H895        H  0.63343089  0.42562589  0.01780108     0.19100
H896        H  0.63170328  0.57314960  0.97198336     0.12500
C897        C  0.73107329  0.75489907  0.98566362     0.16300
C898        C  0.74314343  0.77580515  0.95987732    -0.32700
C899        C  0.76658485  0.77064113  0.95010301     0.20700
C900        C  0.77747553  0.74570833  0.96456142     0.02900
C901        C  0.76535528  0.72473451  0.98973788    -0.22400
C902        C  0.74211539  0.73011302  0.00024659     0.12100
S903        S  0.70251822  0.75674282  0.00161349    -0.06100
C904        C  0.70573830  0.72375742  0.02815201    -0.09600
C905        C  0.72777429  0.71236978  0.02482239    -0.26200
S906        S  0.80644165  0.74453508  0.95295992    -0.03400
C907        C  0.80400332  0.77835207  0.92949227    -0.16800
C908        C  0.78169439  0.78930653  0.92931990    -0.14800
H909        H  0.73481380  0.79544112  0.94884157     0.20600
H910        H  0.77381772  0.70538376  0.00172324     0.16600
H911        H  0.73287174  0.69158107  0.03823496     0.19100
H912        H  0.77707240  0.81066087  0.91778675     0.12500
C913        C  0.75044716  0.61735828  0.19225314     0.16300
C914        C  0.77453575  0.61710528  0.20017251    -0.32700
C915        C  0.78244154  0.61628348  0.24770120     0.20700
C916        C  0.76700722  0.61502165  0.28548471     0.02900
C917        C  0.74299469  0.61509951  0.27756426    -0.22400
C918        C  0.73511602  0.61666945  0.23023782     0.12100
S919        S  0.73726028  0.62046779  0.13766829    -0.06100
C920        C  0.71082359  0.62157622  0.16641315    -0.09600
C921        C  0.71246069  0.61912195  0.21570933    -0.26200
S922        S  0.77982707  0.61565625  0.34043725    -0.03400
C923        C  0.80641801  0.61833210  0.31268365    -0.16800
C924        C  0.80510372  0.61817846  0.26307120    -0.14800
H925        H  0.78657457  0.61844119  0.17066364     0.20600
H926        H  0.73095613  0.61492369  0.30715589     0.16600
H927        H  0.69785880  0.62002286  0.23986949     0.19100
H928        H  0.81983811  0.62058959  0.23952696     0.12500
C929        C  0.52682051  0.65180631  0.12336957     0.16300
C930        C  0.50479605  0.63962022  0.12952595    -0.32700
C931        C  0.48553473  0.65718425  0.12170371     0.20700
C932        C  0.48810101  0.68557386  0.10821885     0.02900
C933        C  0.51011149  0.69768467  0.10172281    -0.22400
C934        C  0.52936782  0.68016907  0.10971710     0.12100
S935        S  0.55231927  0.63424690  0.13184860    -0.06100
C936        C  0.56662403  0.66545763  0.11685027    -0.09600
C937        C  0.55217402  0.68813279  0.10581793    -0.26200
S938        S  0.46266212  0.70348283  0.10130017    -0.03400
C939        C  0.44832927  0.67241434  0.11674071    -0.16800
C940        C  0.46271617  0.64944231  0.12646592    -0.14800
H941        H  0.50277001  0.61749169  0.14025648     0.20600
H942        H  0.51213756  0.71985612  0.09124603     0.16600
H943        H  0.55802492  0.70930691  0.09559993     0.19100
H944        H  0.45681669  0.62830858  0.13680633     0.12500
C945        C  0.62559355  0.02967351  0.49993360     0.16300
C946        C  0.62511088  0.00934032  0.53689660    -0.32700
C947        C  0.62748315  0.98037621  0.52453667     0.20700
C948        C  0.62985816  0.97211975  0.47730133     0.02900
C949        C  0.62974149  0.99238188  0.44026393    -0.22400
C950        C  0.62772130  0.02136034  0.45267439     0.12100
S951        S  0.62586973  0.06585491  0.50813536    -0.06100
C952        C  0.62893245  0.07000521  0.44725156    -0.09600
C953        C  0.62931112  0.04440916  0.42215387    -0.26200
S954        S  0.63473113  0.93644405  0.46979460    -0.03400
C955        C  0.63371684  0.93236881  0.53099365    -0.16800
C956        C  0.62938494  0.95759040  0.55557016    -0.14800
H957        H  0.62394779  0.01592058  0.57383549     0.20600
H958        H  0.63211030  0.98591642  0.40351659     0.16600
H959        H  0.63217889  0.04270706  0.38410123     0.19100
H960        H  0.62894616  0.95943793  0.59405076     0.12500
C961        C  0.76407783  0.73596049  0.44742794     0.16300
C962        C  0.74057653  0.73700436  0.45970921    -0.32700
C963        C  0.73417531  0.75572734  0.49636136     0.20700
C964        C  0.75039861  0.77305692  0.51884909     0.02900
C965        C  0.77374295  0.77253116  0.50577582    -0.22400
C966        C  0.78021089  0.75348285  0.46981756     0.12100
S967        S  0.77583218  0.71146552  0.40978131    -0.06100
C968        C  0.80276217  0.72453996  0.42538213    -0.09600
C969        C  0.80242998  0.74754617  0.45631194    -0.26200
S970        S  0.73929060  0.79499444  0.56118796    -0.03400
C971        C  0.71233046  0.78106432  0.54822093    -0.16800
C972        C  0.71221401  0.76002046  0.51344106    -0.14800
H973        H  0.72799064  0.72315504  0.44261017     0.20600
H974        H  0.78641083  0.78587140  0.52372866     0.16600
H975        H  0.81767127  0.75708102  0.47243785     0.19100
H976        H  0.69676694  0.75012920  0.49882751     0.12500
C977        C  0.73231730  0.88847959  0.74524293     0.16300
C978        C  0.74522381  0.88828060  0.78781795    -0.32700
C979        C  0.76951566  0.88863983  0.78435156     0.20700
C980        C  0.78043444  0.88958505  0.74036829     0.02900
C981        C  0.76752256  0.89030662  0.69781615    -0.22400
C982        C  0.74323058  0.88949865  0.70126333     0.12100
S983        S  0.70284495  0.88527783  0.74184580    -0.06100
C984        C  0.70507003  0.88507078  0.68039065    -0.09600
C985        C  0.72770707  0.88777744  0.66394136    -0.26200
S986        S  0.80995723  0.88747817  0.74352346    -0.03400
C987        C  0.80772201  0.88507526  0.80483851    -0.16800
C988        C  0.78506731  0.88632880  0.82149414    -0.14800
H989        H  0.73669937  0.88683999  0.82212025     0.20600
H990        H  0.77606273  0.89041450  0.66345262     0.16600
H991        H  0.73266871  0.88699377  0.62673176     0.19100
H992        H  0.78014578  0.88410332  0.85857300     0.12500
C993        C  0.62581260  0.76603986  0.81146921     0.16300
C994        C  0.61839319  0.75851609  0.85754542    -0.32700
C995        C  0.62515683  0.73172599  0.87560575     0.20700
C996        C  0.63862340  0.71320052  0.84895433     0.02900
C997        C  0.64564544  0.72049003  0.80256549    -0.22400
C998        C  0.63903003  0.74732998  0.78463989     0.12100
S999        S  0.62020905  0.79791226  0.78358773    -0.06100
C1000       C  0.63575042  0.78587910  0.73505013    -0.09600
C1001       C  0.64468844  0.75851478  0.74083334    -0.26200
S1002       S  0.64708009  0.68312519  0.87909870    -0.03400
C1003       C  0.63237736  0.69554639  0.92839864    -0.16800
C1004       C  0.62119646  0.72149771  0.92084501    -0.14800
H1005       H  0.60827045  0.77318683  0.87884010     0.20600
H1006       H  0.65637090  0.70619388  0.78182831     0.16600
H1007       H  0.65474415  0.74728662  0.71422331     0.19100
H1008       H  0.61218200  0.73340461  0.94821847     0.12500
C1009       C  0.65239492  0.75793517  0.28591566     0.16300
C1010       C  0.66063717  0.77979931  0.31608495    -0.32700
C1011       C  0.64848505  0.78492441  0.35868517     0.20700
C1012       C  0.62870295  0.76939407  0.36983791     0.02900
C1013       C  0.62054881  0.74754846  0.33987573    -0.22400
C1014       C  0.63303956  0.74188252  0.29814438     0.12100
S1015       S  0.66454362  0.74826857  0.23271011    -0.06100
C1016       C  0.64376885  0.72175195  0.22777536    -0.09600
C1017       C  0.62819367  0.72085561  0.26531516    -0.26200
S1018       S  0.61691957  0.77762474  0.42368114    -0.03400
C1019       C  0.63929280  0.80164033  0.43274331    -0.16800
C1020       C  0.65465625  0.80361698  0.39468097    -0.14800
H1021       H  0.67607574  0.79188785  0.30717567     0.20600
H1022       H  0.60540928  0.73502298  0.34931071     0.16600
H1023       H  0.61371415  0.70612499  0.26776856     0.19100
H1024       H  0.67021000  0.81663778  0.39455100     0.22100
C1025       C  0.38278627  0.98647791  0.53681339     0.16300
C1026       C  0.38525908  0.01638846  0.53764908    -0.32700
C1027       C  0.38199640  0.03133952  0.49464459     0.20700
C1028       C  0.37705142  0.01711645  0.45244455     0.02900
C1029       C  0.37455685  0.98725025  0.45162496    -0.22400
C1030       C  0.37731970  0.97238319  0.49478386     0.12100
S1031       S  0.38465193  0.96450025  0.58559712    -0.06100
C1032       C  0.37745914  0.93607846  0.54917886    -0.09600
C1033       C  0.37423840  0.94356299  0.50164372    -0.26200
S1034       S  0.37295423  0.03915226  0.40446625    -0.03400
C1035       C  0.37731462  0.06796555  0.44178936    -0.16800
C1036       C  0.38204112  0.06052874  0.48879865    -0.14800
H1037       H  0.38894281  0.02758297  0.57061104     0.20600
H1038       H  0.37006302  0.97614698  0.41899428     0.16600
H1039       H  0.36921315  0.92878683  0.47370641     0.19100
H1040       H  0.38454779  0.07571786  0.51751998     0.12500
C1041       C  0.39316565  0.73552586  0.87929933     0.16300
C1042       C  0.40110406  0.75777495  0.84965453    -0.32700
C1043       C  0.38882450  0.76302220  0.80727715     0.20700
C1044       C  0.36993321  0.74624118  0.79457053     0.02900
C1045       C  0.36211160  0.72396820  0.82401190    -0.22400
C1046       C  0.37399970  0.71918475  0.86683261     0.12100
S1047       S  0.40414234  0.72764465  0.93425027    -0.06100
C1048       C  0.38228651  0.70258441  0.94118277    -0.09600
C1049       C  0.36777821  0.70011109  0.90194581    -0.26200
S1050       S  0.35747861  0.75545879  0.74175129    -0.03400
C1051       C  0.37754976  0.78269468  0.73676245    -0.16800
C1052       C  0.39319547  0.78427668  0.77432562    -0.14800
H1053       H  0.41578141  0.77091751  0.85984721     0.20600
H1054       H  0.34704662  0.71133446  0.81444033     0.16600
H1055       H  0.35253921  0.68655262  0.90047453     0.19100
H1056       H  0.40725188  0.79961424  0.77679669     0.12500
C1057       C  0.36380291  0.78532234  0.35940141     0.16300
C1058       C  0.35623612  0.77648073  0.31409777    -0.32700
C1059       C  0.36616504  0.75162839  0.29476669     0.20700
C1060       C  0.38271471  0.73615287  0.31952077     0.02900
C1061       C  0.39052174  0.74524301  0.36431200    -0.22400
C1062       C  0.38077371  0.77015766  0.38340127     0.12100
S1063       S  0.35284826  0.81357997  0.39104269    -0.06100
C1064       C  0.37153978  0.80493698  0.43685533    -0.09600
C1065       C  0.38551066  0.78152457  0.42726905    -0.26200
S1066       S  0.39236316  0.70635777  0.29051598    -0.03400
C1067       C  0.37434233  0.71512344  0.24385733    -0.16800
C1068       C  0.36138202  0.73972614  0.25112447    -0.14800
H1069       H  0.34301786  0.78822557  0.29502779     0.20600
H1070       H  0.40348970  0.73325116  0.38369472     0.16600
H1071       H  0.39756792  0.77214538  0.45236418     0.19100
H1072       H  0.34933127  0.74862411  0.22554203     0.12500
C1073       C  0.48850761  0.84945475  0.60296292     0.16300
C1074       C  0.51058766  0.86183353  0.60503924    -0.32700
C1075       C  0.52967305  0.84356627  0.60205059     0.20700
C1076       C  0.52696451  0.81425144  0.59667846     0.02900
C1077       C  0.50480897  0.80184776  0.59412613    -0.22400
C1078       C  0.48565750  0.82014725  0.59761390     0.12100
S1079       S  0.46334389  0.86798417  0.60849342    -0.06100
C1080       C  0.44863541  0.83594911  0.60395661    -0.09600
C1081       C  0.46271715  0.81223586  0.59781620    -0.26200
S1082       S  0.55244821  0.79583167  0.59494129    -0.03400
C1083       C  0.56683898  0.82800147  0.60183988    -0.16800
C1084       C  0.55245704  0.85158165  0.60495639    -0.14800
H1085       H  0.51279416  0.88468666  0.60966304     0.20600
H1086       H  0.50260310  0.77893943  0.59040139     0.16600
H1087       H  0.45655509  0.79038902  0.59494982     0.19100
H1088       H  0.55834352  0.87343555  0.60963125     0.12500
C1089       C  0.23299627  0.75528149  0.49515331     0.16300
C1090       C  0.24501403  0.77691686  0.51915482    -0.32700
C1091       C  0.26762621  0.77092352  0.53418892     0.20700
C1092       C  0.27788691  0.74459541  0.52618814     0.02900
C1093       C  0.26575839  0.72282879  0.50275999    -0.22400
C1094       C  0.24326119  0.72896207  0.48718726     0.12100
S1095       S  0.20525622  0.75803274  0.47433279    -0.06100
C1096       C  0.20757344  0.72327082  0.45491711    -0.09600
C1097       C  0.22886480  0.71065796  0.46376635    -0.26200
S1098       S  0.30625189  0.74264459  0.54320821    -0.03400
C1099       C  0.30431279  0.77789686  0.56031195    -0.16800
C1100       C  0.28256311  0.78989892  0.55455915    -0.14800
H1101       H  0.23725508  0.79766197  0.52512278     0.20600
H1102       H  0.27367349  0.70226599  0.49595746     0.16600
H1103       H  0.23327620  0.68872305  0.45535198     0.19100
H1104       H  0.27834652  0.81207775  0.56148446     0.12500
C1105       C  0.28215927  0.88514875  0.75530031     0.16300
C1106       C  0.26898204  0.88529984  0.79746558    -0.32700
C1107       C  0.24471753  0.88565186  0.79311726     0.20700
C1108       C  0.23414591  0.88612084  0.74870586     0.02900
C1109       C  0.24730158  0.88644111  0.70666282    -0.22400
C1110       C  0.27149633  0.88580610  0.71099932     0.12100
S1111       S  0.31164686  0.88217921  0.75273307    -0.06100
C1112       C  0.30960739  0.88173156  0.69128025    -0.09600
C1113       C  0.28712565  0.88411528  0.67419242    -0.26200
S1114       S  0.20465708  0.88421030  0.75056840    -0.03400
C1115       C  0.20633624  0.88269011  0.81197554    -0.16800
C1116       C  0.22882678  0.88392542  0.82967882    -0.14800
H1117       H  0.27726021  0.88425728  0.83208065     0.20600
H1118       H  0.23900614  0.88625632  0.67201326     0.16600
H1119       H  0.28234898  0.88322660  0.63686019     0.19100
H1120       H  0.23336139  0.88213475  0.86703881     0.12500
loop_ 
_geom_bond_atom_site_label_1 
_geom_bond_atom_site_label_2 
_geom_bond_distance 
_geom_bond_site_symmetry_2 
_ccdc_geom_bond_type 
Fe1          O17   2.056       .  S
Fe1           O7   2.114       .  S
Fe1          O14   2.113       .  S
Fe1           O6   2.047       .  S
Fe1          O12   1.948       .  S
Fe2           O5   2.026       .  S
Fe2           O9   2.097       .  S
Fe2          O13   2.047       .  S
Fe2          O18   2.105       .  S
Fe2          O12   1.943       .  S
Fe3          O21   2.096       .  S
Fe3           O8   2.042       .  S
Fe3          O15   2.039       .  S
Fe3           O4   2.097       .  S
Fe3          O12   1.945       .  S
O4           C11   1.276       .  A
O5           C19   1.264       .  A
O6           C11   1.269       .  A
O7           C10   1.277       .  A
O8           C20   1.266       .  A
O9           C22   1.275       .  A
C10          O15   1.264       .  A
C10        C1051   1.475       .  S
C11        C1080   1.473       .  S
O13          C16   1.268       .  A
O14          C16   1.279       .  A
C16        C1032   1.481       .  S
O17          C22   1.268       .  A
O18          C20   1.275       .  A
C19          O21   1.275       .  A
C19        C1099   1.465       .  S
C20        C1064   1.478       .  S
C22        C1112   1.480       .  S
Fe23         O39   2.119       .  S
Fe23         O29   2.057       .  S
Fe23         O36   2.061       .  S
Fe23         O28   2.110       .  S
Fe23         O34   1.945       .  S
Fe24         O27   2.121       .  S
Fe24         O31   2.045       .  S
Fe24         O35   2.105       .  S
Fe24         O40   2.022       .  S
Fe24         O34   1.940       .  S
Fe25         O43   2.041       .  S
Fe25         O30   2.105       .  S
Fe25         O37   2.089       .  S
Fe25         O26   2.057       .  S
Fe25         O34   1.946       .  S
O26          C33   1.270       .  A
O27          C41   1.279       .  A
O28          C33   1.278       .  A
O29          C32   1.271       .  A
O30          C42   1.274       .  A
O31          C44   1.266       .  A
C32          O37   1.274       .  A
C32        C1083   1.474       .  S
C33        C1000   1.484       .  S
O35          C38   1.277       .  A
O36          C38   1.270       .  A
C38         C984   1.487       .  S
O39          C44   1.279       .  A
O40          C42   1.259       .  A
C41          O43   1.266       .  A
C41        C1019   1.482       .  S
C42         C971   1.462       .  S
C44         C955   1.482       .  S
Fe45         O61   2.060       .  S
Fe45         O51   2.105       .  S
Fe45         O58   2.111       .  S
Fe45         O50   2.048       .  S
Fe45         O56   1.954       .  S
Fe46         O49   2.023       .  S
Fe46         O53   2.104       .  S
Fe46         O57   2.048       .  S
Fe46         O62   2.102   1_554  S
Fe46         O56   1.939       .  S
Fe47         O65   2.096       .  S
Fe47         O52   2.052       .  S
Fe47         O59   2.055       .  S
Fe47         O48   2.099       .  S
Fe47         O56   1.952       .  S
O48          C55   1.278       .  A
O49          C63   1.264       .  A
O50          C55   1.269       .  A
O51          C54   1.276       .  A
O52          C64   1.267   1_554  A
O53          C66   1.276       .  A
C54          O59   1.265       .  A
C54        C1016   1.476       .  S
C55         C936   1.474       .  S
O57          C60   1.267       .  A
O58          C60   1.277       .  A
C60         C891   1.480       .  S
O61          C66   1.270       .  A
O62          C64   1.276       .  A
C63          O65   1.274       .  A
C63         C904   1.464       .  S
C64        C1003   1.482       .  S
C66         C920   1.485       .  S
Fe67         O83   2.104       .  S
Fe67         O73   2.059       .  S
Fe67         O80   2.059       .  S
Fe67         O72   2.098       .  S
Fe67         O78   1.948       .  S
Fe68         O71   2.110   1_554  S
Fe68         O75   2.053       .  S
Fe68         O79   2.104       .  S
Fe68         O84   2.026       .  S
Fe68         O78   1.942       .  S
Fe69         O87   2.043       .  S
Fe69         O74   2.088       .  S
Fe69         O81   2.086       .  S
Fe69         O70   2.050       .  S
Fe69         O78   1.943       .  S
O70          C77   1.265       .  A
O71          C85   1.279       .  A
O72          C77   1.274       .  A
O73          C76   1.272       .  A
O74          C86   1.272       .  A
O75          C88   1.267       .  A
C76          O81   1.275       .  A
C76         C939   1.473       .  S
C77        C1067   1.474       .  S
O79          C82   1.278       .  A
O80          C82   1.270       .  A
C82         C872   1.484       .  S
O83          C88   1.276       .  A
O84          C86   1.262       .  A
C85          O87   1.266   1_556  A
C85        C1048   1.479       .  S
C86         C856   1.463       .  S
C88         C843   1.481       .  S
Fe89        O105   2.050       .  S
Fe89         O95   2.117       .  S
Fe89        O102   2.119       .  S
Fe89         O94   2.054       .  S
Fe89        O100   1.949       .  S
Fe90         O93   2.027       .  S
Fe90         O97   2.105       .  S
Fe90        O101   2.049       .  S
Fe90        O106   2.116   1_556  S
Fe90        O100   1.943       .  S
Fe91        O109   2.091       .  S
Fe91         O96   2.043       .  S
Fe91        O103   2.044       .  S
Fe91         O92   2.088       .  S
Fe91        O100   1.941       .  S
O92          C99   1.274       .  A
O93         C107   1.262       .  A
O94          C99   1.270       .  A
O95          C98   1.279       .  A
O96         C108   1.267   1_556  A
O97         C110   1.277       .  A
C98         O103   1.266       .  A
C98         C792   1.477       .  S
C99         C824   1.472       .  S
O101        C104   1.267       .  A
O102        C104   1.279       .  A
C104        C776   1.481       .  S
O105        C110   1.268       .  A
O106        C108   1.279       .  A
C107        O109   1.272       .  A
C107        C859   1.464       .  S
C108        C811   1.481       .  S
C110       C1115   1.482       .  S
Fe111       O127   2.102       .  S
Fe111       O117   2.045       .  S
Fe111       O124   2.056       .  S
Fe111       O116   2.098       .  S
Fe111       O122   1.945       .  S
Fe112       O115   2.106       .  S
Fe112       O119   2.053       .  S
Fe112       O123   2.106       .  S
Fe112       O128   2.027       .  S
Fe112       O122   1.946       .  S
Fe113       O131   2.049       .  S
Fe113       O118   2.095       .  S
Fe113       O125   2.102       .  S
Fe113       O114   2.048       .  S
Fe113       O122   1.949       .  S
O114        C121   1.266       .  A
O115        C129   1.276   1_556  A
O116        C121   1.275       .  A
O117        C120   1.269       .  A
O118        C130   1.275       .  A
O119        C132   1.268       .  A
C120        O125   1.278       .  A
C120        C827   1.474       .  S
C121        C744   1.476       .  S
O123        C126   1.276       .  A
O124        C126   1.268       .  A
C126        C987   1.485       .  S
O127        C132   1.277       .  A
O128        C130   1.263       .  A
C129        O131   1.267   1_554  A
C129        C760   1.481       .  S
C130        C907   1.463       .  S
C132        C728   1.477       .  S
Fe133       O149   2.074       .  S
Fe133       O139   2.102       .  S
Fe133       O146   2.118       .  S
Fe133       O138   2.071       .  S
Fe133       O144   1.957       .  S
Fe134       O137   2.034       .  S
Fe134       O141   2.090       .  S
Fe134       O145   2.045       .  S
Fe134       O150   2.098       .  S
Fe134       O144   1.947       .  S
Fe135       O153   2.092       .  S
Fe135       O140   2.049       .  S
Fe135       O147   2.050       .  S
Fe135       O136   2.089       .  S
Fe135       O144   1.951       .  S
O136        C143   1.276       .  A
O137        C151   1.263       .  A
O138        C143   1.274       .  A
O139        C142   1.275       .  A
O140        C152   1.267       .  A
O141        C154   1.274       .  A
C142        O147   1.266       .  A
C142        C763   1.479       .  S
C143        C712   1.480       .  S
O145        C148   1.266       .  A
O146        C148   1.279       .  A
C148        C699   1.480       .  S
O149        C154   1.271       .  A
O150        C152   1.274       .  A
C151        O153   1.274       .  A
C151        C968   1.461       .  S
C152        C747   1.478       .  S
C154        C923   1.486       .  S
Fe155       O171   2.111       .  S
Fe155       O161   2.051       .  S
Fe155       O168   2.057       .  S
Fe155       O160   2.109       .  S
Fe155       O166   1.946       .  S
Fe156       O159   2.113       .  S
Fe156       O163   2.045       .  S
Fe156       O167   2.103       .  S
Fe156       O172   2.017       .  S
Fe156       O166   1.938       .  S
Fe157       O175   2.044       .  S
Fe157       O162   2.106       .  S
Fe157       O169   2.107       .  S
Fe157       O158   2.049       .  S
Fe157       O166   1.940       .  S
O158        C165   1.265       .  A
O159        C173   1.277       .  A
O160        C165   1.276       .  A
O161        C164   1.270       .  A
O162        C174   1.277       .  A
O163        C176   1.267       .  A
C164        O169   1.279       .  A
C164        C715   1.479       .  S
C165        C808   1.476       .  S
O167        C170   1.277       .  A
O168        C170   1.269       .  A
C170        C875   1.482       .  S
O171        C176   1.278       .  A
O172        C174   1.262       .  A
C173        O175   1.265       .  A
C173        C795   1.481       .  S
C174       C1096   1.465       .  S
C176        C683   1.477       .  S
Fe177       O193   2.047       .  S
Fe177       O183   2.109       .  S
Fe177       O190   2.108       .  S
Fe177       O182   2.046       .  S
Fe177       O188   1.940       .  S
Fe178       O181   2.031       .  S
Fe178       O185   2.105       .  S
Fe178       O189   2.051       .  S
Fe178       O194   2.113       .  S
Fe178       O188   1.939       .  S
Fe179       O197   2.110       .  S
Fe179       O184   2.038       .  S
Fe179       O191   2.043       .  S
Fe179       O180   2.108       .  S
Fe179       O188   1.943       .  S
O180        C187   1.277       .  A
O181        C195   1.263       .  A
O182        C187   1.267       .  A
O183        C186   1.279       .  A
O184        C196   1.265   1_556  A
O185        C198   1.277       .  A
C186        O191   1.266       .  A
C186        C635   1.473       .  S
C187        C664   1.478       .  S
O189        C192   1.268       .  A
O190        C192   1.278       .  A
C192        C888   1.479       .  S
O193        C198   1.267       .  A
O194        C196   1.279   1_556  A
C195        O197   1.276       .  A
C195        C600   1.471       .  S
C196        C648   1.475       .  S
C198        C616   1.480       .  S
Fe199       O215   2.112       .  S
Fe199       O205   2.061       .  S
Fe199       O212   2.060       .  S
Fe199       O204   2.106       .  S
Fe199       O210   1.940       .  S
Fe200       O203   2.107   1_556  S
Fe200       O207   2.052       .  S
Fe200       O211   2.097       .  S
Fe200       O216   2.023       .  S
Fe200       O210   1.936       .  S
Fe201       O219   2.039       .  S
Fe201       O206   2.108       .  S
Fe201       O213   2.100       .  S
Fe201       O202   2.050       .  S
Fe201       O210   1.936       .  S
O202        C209   1.266       .  A
O203        C217   1.276       .  A
O204        C209   1.276       .  A
O205        C208   1.274       .  A
O206        C218   1.276       .  A
O207        C220   1.268       .  A
C208        O213   1.278       .  A
C208        C667   1.478       .  S
C209        C536   1.475       .  S
O211        C214   1.276       .  A
O212        C214   1.271       .  A
C214        C587   1.480       .  S
O215        C220   1.277       .  A
O216        C218   1.262       .  A
C217        O219   1.264   1_554  A
C217        C552   1.474       .  S
C218        C568   1.463       .  S
C220        C840   1.479       .  S
Fe221       O237   2.062       .  S
Fe221       O227   2.096       .  S
Fe221       O234   2.108       .  S
Fe221       O226   2.069       .  S
Fe221       O232   1.946       .  S
Fe222       O225   2.027       .  S
Fe222       O229   2.102       .  S
Fe222       O233   2.053       .  S
Fe222       O238   2.109       .  S
Fe222       O232   1.941       .  S
Fe223       O241   2.094       .  S
Fe223       O228   2.044       .  S
Fe223       O235   2.050       .  S
Fe223       O224   2.093       .  S
Fe223       O232   1.943       .  S
O224        C231   1.276       .  A
O225        C239   1.261       .  A
O226        C231   1.275       .  A
O227        C230   1.274       .  A
O228        C240   1.266       .  A
O229        C242   1.277       .  A
C230        O235   1.265       .  A
C230        C555   1.471       .  S
C231        C488   1.481       .  S
O233        C236   1.267       .  A
O234        C236   1.277       .  A
C236       C1035   1.477       .  S
O237        C242   1.271       .  A
O238        C240   1.278       .  A
C239        O241   1.273       .  A
C239        C520   1.457       .  S
C240        C539   1.478       .  S
C242        C507   1.486       .  S
Fe243       O259   2.122       .  S
Fe243       O249   2.043       .  S
Fe243       O256   2.046       .  S
Fe243       O248   2.115       .  S
Fe243       O254   1.943       .  S
Fe244       O247   2.112       .  S
Fe244       O251   2.045       .  S
Fe244       O255   2.095       .  S
Fe244       O260   2.028       .  S
Fe244       O254   1.937       .  S
Fe245       O263   2.034       .  S
Fe245       O250   2.117       .  S
Fe245       O257   2.115       .  S
Fe245       O246   2.039       .  S
Fe245       O254   1.939       .  S
O246        C253   1.265       .  A
O247        C261   1.277       .  A
O248        C253   1.279       .  A
O249        C252   1.268       .  A
O250        C262   1.278       .  A
O251        C264   1.267       .  A
C252        O257   1.279       .  A
C252        C491   1.481       .  S
C253        C651   1.471       .  S
O255        C258   1.275       .  A
O256        C258   1.265       .  A
C258        C456   1.473       .  S
O259        C264   1.281       .  A
O260        C262   1.261       .  A
C261        O263   1.264       .  A
C261        C632   1.474       .  S
C262        C472   1.468       .  S
C264        C952   1.480       .  S
Fe265       O281   2.059       .  S
Fe265       O271   2.104       .  S
Fe265       O278   2.120       .  S
Fe265       O270   2.057       .  S
Fe265       O276   1.950       .  S
Fe266       O269   2.032       .  S
Fe266       O273   2.091       .  S
Fe266       O277   2.042       .  S
Fe266       O282   2.100       .  S
Fe266       O276   1.943       .  S
Fe267       O285   2.104       .  S
Fe267       O272   2.044       .  S
Fe267       O279   2.057       .  S
Fe267       O268   2.098       .  S
Fe267       O276   1.949       .  S
O268        C275   1.276       .  A
O269        C283   1.262       .  A
O270        C275   1.271       .  A
O271        C274   1.277       .  A
O272        C284   1.267       .  A
O273        C286   1.274       .  A
C274        O279   1.268       .  A
C274        C424   1.480       .  S
C275        C440   1.479       .  S
O277        C280   1.265       .  A
O278        C280   1.279       .  A
C280        C696   1.480       .  S
O281        C286   1.268       .  A
O282        C284   1.275       .  A
C283        O285   1.275       .  A
C283        C475   1.467       .  S
C284        C411   1.476       .  S
C286        C619   1.480       .  S
Fe287       O303   2.112       .  S
Fe287       O293   2.057       .  S
Fe287       O300   2.067       .  S
Fe287       O292   2.102       .  S
Fe287       O298   1.946       .  S
Fe288       O291   2.097       .  S
Fe288       O295   2.046       .  S
Fe288       O299   2.085       .  S
Fe288       O304   2.029       .  S
Fe288       O298   1.941       .  S
Fe289       O307   2.043       .  S
Fe289       O294   2.099       .  S
Fe289       O301   2.098       .  S
Fe289       O290   2.041       .  S
Fe289       O298   1.943       .  S
O290        C297   1.264       .  A
O291        C305   1.273       .  A
O292        C297   1.275       .  A
O293        C296   1.272       .  A
O294        C306   1.276       .  A
O295        C308   1.269       .  A
C296        O301   1.277       .  A
C296        C443   1.478       .  S
C297        C395   1.472       .  S
O299        C302   1.271       .  A
O300        C302   1.269       .  A
C302        C584   1.479       .  S
O303        C308   1.280       .  A
O304        C306   1.264       .  A
C305        O307   1.264       .  A
C305        C379   1.475       .  S
C306        C523   1.458       .  S
C308        C680   1.477       .  S
Fe309       O325   2.067       .  S
Fe309       O315   2.107       .  S
Fe309       O322   2.121       .  S
Fe309       O314   2.063       .  S
Fe309       O320   1.953       .  S
Fe310       O313   2.028       .  S
Fe310       O317   2.095       .  S
Fe310       O321   2.045       .  S
Fe310       O326   2.107   1_554  S
Fe310       O320   1.942       .  S
Fe311       O329   2.095       .  S
Fe311       O316   2.037       .  S
Fe311       O323   2.038       .  S
Fe311       O312   2.088       .  S
Fe311       O320   1.944       .  S
O312        C319   1.275       .  A
O313        C327   1.261       .  A
O314        C319   1.273       .  A
O315        C318   1.276       .  A
O316        C328   1.264   1_554  A
O317        C330   1.275       .  A
C318        O323   1.264       .  A
C318        C376   1.475       .  S
C319        C363   1.476       .  S
O321        C324   1.266       .  A
O322        C324   1.280       .  A
C324        C779   1.484       .  S
O325        C330   1.270       .  A
O326        C328   1.277       .  A
C327        O329   1.273       .  A
C327        C571   1.461       .  S
C328        C392   1.476       .  S
C330        C504   1.485       .  S
Fe331       O347   2.096       .  S
Fe331       O337   2.043       .  S
Fe331       O344   2.045       .  S
Fe331       O336   2.086       .  S
Fe331       O342   1.948       .  S
Fe332       O335   2.102   1_554  S
Fe332       O339   2.057       .  S
Fe332       O343   2.100       .  S
Fe332       O348   2.039       .  S
Fe332       O342   1.945       .  S
Fe333       O351   2.050       .  S
Fe333       O338   2.100       .  S
Fe333       O345   2.108       .  S
Fe333       O334   2.059       .  S
Fe333       O342   1.948       .  S
O334        C341   1.266       .  A
O335        C349   1.275       .  A
O336        C341   1.271       .  A
O337        C340   1.269       .  A
O338        C350   1.276       .  A
O339        C352   1.269       .  A
C340        O345   1.279       .  A
C340        C360   1.476       .  S
C341        C408   1.473       .  S
O343        C346   1.276       .  A
O344        C346   1.267       .  A
C346        C459   1.476       .  S
O347        C352   1.273       .  A
O348        C350   1.266       .  A
C349        O351   1.268   1_556  A
C349        C427   1.481       .  S
C350        C603   1.470       .  S
C352        C731   1.476       .  S
C353        S359   1.703       .  A
C353        C358   1.387       .  A
C353        C354   1.401   1_655  A
C354        C355   1.401       .  A
C354        H365   1.083       .  S
C355        C364   1.372       .  A
C355        C356   1.387       .  A
C356        S362   1.707       .  A
C356        C357   1.404       .  A
C357        C358   1.404   1_455  A
C357        H366   1.083       .  S
C358        C361   1.375       .  A
S359        C360   1.725       .  A
C360        C361   1.388       .  A
C361        H367   1.083       .  S
S362        C363   1.726       .  A
C363        C364   1.387       .  A
C364        H368   1.083       .  S
C369        S375   1.713       .  A
C369        C374   1.386       .  A
C369        C370   1.402       .  A
C370        C371   1.405       .  A
C370        H381   1.083       .  S
C371        C380   1.369       .  A
C371        C372   1.386       .  A
C372        S378   1.712       .  A
C372        C373   1.401       .  A
C373        C374   1.404       .  A
C373        H382   1.083       .  S
C374        C377   1.367       .  A
S375        C376   1.723       .  A
C376        C377   1.389       .  A
C377        H383   1.083       .  S
S378        C379   1.724       .  A
C379        C380   1.389       .  A
C380        H384   1.083       .  S
C385        S391   1.703       .  A
C385        C390   1.387       .  A
C385        C386   1.403       .  A
C386        C387   1.402       .  A
C386        H397   1.083       .  S
C387        C396   1.375       .  A
C387        C388   1.387       .  A
C388        S394   1.703       .  A
C388        C389   1.402       .  A
C389        C390   1.401       .  A
C389        H398   1.083       .  S
C390        C393   1.375       .  A
S391        C392   1.727       .  A
C392        C393   1.387       .  A
C393        H399   1.083       .  S
S394        C395   1.725       .  A
C395        C396   1.386       .  A
C396        H400   1.083       .  S
C401        S407   1.705       .  A
C401        C406   1.387       .  A
C401        C402   1.398       .  A
C402        C403   1.400       .  A
C402        H413   1.083       .  S
C403        C412   1.366       .  A
C403        C404   1.386       .  A
C404        S410   1.714       .  A
C404        C405   1.405       .  A
C405        C406   1.407       .  A
C405        H414   1.083       .  S
C406        C409   1.374       .  A
S407        C408   1.721       .  A
C408        C409   1.390       .  A
C409        H415   1.083       .  S
S410        C411   1.726       .  A
C411        C412   1.387       .  A
C412        H416   1.083       .  S
C417        S423   1.710       .  A
C417        C422   1.386       .  A
C417        C418   1.401       .  A
C418        C419   1.403       .  A
C418        H429   1.083       .  S
C419        C428   1.370       .  A
C419        C420   1.385       .  A
C420        S426   1.716       .  A
C420        C421   1.407       .  A
C421        C422   1.408       .  A
C421        H430   1.083       .  S
C422        C425   1.375       .  A
S423        C424   1.723       .  A
C424        C425   1.392       .  A
C425        H431   1.083       .  S
S426        C427   1.727       .  A
C427        C428   1.389       .  A
C428        H432   1.083       .  S
C433        S439   1.713       .  A
C433        C438   1.386       .  A
C433        C434   1.406   1_655  A
C434        C435   1.407       .  A
C434        H445   1.083       .  S
C435        C444   1.376       .  A
C435        C436   1.387       .  A
C436        S442   1.704       .  A
C436        C437   1.400       .  A
C437        C438   1.401   1_455  A
C437        H446   1.083   1_455  S
C438        C441   1.370       .  A
S439        C440   1.727       .  A
C440        C441   1.387       .  A
C441        H447   1.083       .  S
S442        C443   1.723       .  A
C443        C444   1.391       .  A
C444        H448   1.083       .  S
C449        S455   1.709       .  A
C449        C454   1.387       .  A
C449        C450   1.405       .  A
C450        C451   1.405       .  A
C450        H461   1.083       .  S
C451        C460   1.375       .  A
C451        C452   1.387       .  A
C452        S458   1.703       .  A
C452        C453   1.401       .  A
C453        C454   1.401       .  A
C453        H462   1.083       .  S
C454        C457   1.371       .  A
S455        C456   1.726       .  A
C456        C457   1.386       .  A
C457        H463   1.083       .  S
S458        C459   1.724       .  A
C459        C460   1.389       .  A
C460        H464   1.083       .  S
C465        S471   1.701       .  A
C465        C470   1.387       .  A
C465        C466   1.401       .  A
C466        C467   1.400       .  A
C466        H477   1.083       .  S
C467        C476   1.372       .  A
C467        C468   1.387       .  A
C468        S474   1.702       .  A
C468        C469   1.402       .  A
C469        C470   1.401       .  A
C469        H478   1.083       .  S
C470        C473   1.373       .  A
S471        C472   1.726       .  A
C472        C473   1.385       .  A
C473        H479   1.083       .  S
S474        C475   1.725       .  A
C475        C476   1.385       .  A
C476        H480   1.083       .  S
C481        S487   1.711       .  A
C481        C486   1.386       .  A
C481        C482   1.408       .  A
C482        C483   1.408       .  A
C482        H493   1.083       .  S
C483        C492   1.381       .  A
C483        C484   1.387       .  A
C484        S490   1.701       .  A
C484        C485   1.401       .  A
C485        C486   1.400       .  A
C485        H494   1.083       .  S
C486        C489   1.373       .  A
S487        C488   1.729       .  A
C488        C489   1.387       .  A
C489        H495   1.083       .  S
S490        C491   1.725       .  A
C491        C492   1.391       .  A
C492        H496   1.083       .  S
C497        S503   1.710       .  A
C497        C502   1.386       .  A
C497        C498   1.404       .  A
C498        C499   1.405       .  A
C498        H509   1.083       .  S
C499        C508   1.375       .  A
C499        C500   1.386       .  A
C500        S506   1.715       .  A
C500        C501   1.408       .  A
C501        C502   1.409       .  A
C501        H510   1.083       .  S
C502        C505   1.379       .  A
S503        C504   1.726       .  A
C504        C505   1.393       .  A
C505        H511   1.083       .  S
S506        C507   1.728       .  A
C507        C508   1.390       .  A
C508        H512   1.083       .  S
C513        S519   1.699       .  A
C513        C518   1.388       .  A
C513        C514   1.398       .  A
C514        C515   1.398       .  A
C514        H525   1.083       .  S
C515        C524   1.367       .  A
C515        C516   1.388       .  A
C516        S522   1.700       .  A
C516        C517   1.399       .  A
C517        C518   1.399       .  A
C517        H526   1.083       .  S
C518        C521   1.368       .  A
S519        C520   1.721       .  A
C520        C521   1.382       .  A
C521        H527   1.083       .  S
S522        C523   1.723       .  A
C523        C524   1.382       .  A
C524        H528   1.083       .  S
C529        S535   1.708       .  A
C529        C534   1.387       .  A
C529        C530   1.405       .  A
C530        C531   1.404       .  A
C530        H541   1.083       .  S
C531        C540   1.376       .  A
C531        C532   1.387       .  A
C532        S538   1.704       .  A
C532        C533   1.403       .  A
C533        C534   1.402       .  A
C533        H542   1.083       .  S
C534        C537   1.373       .  A
S535        C536   1.726       .  A
C536        C537   1.387       .  A
C537        H543   1.083       .  S
S538        C539   1.727       .  A
C539        C540   1.389       .  A
C540        H544   1.083       .  S
C545        S551   1.701       .  A
C545        C550   1.387       .  A
C545        C546   1.401       .  A
C546        C547   1.400       .  A
C546        H557   1.083       .  S
C547        C556   1.371       .  A
C547        C548   1.387       .  A
C548        S554   1.707       .  A
C548        C549   1.404       .  A
C549        C550   1.404       .  A
C549        H558   1.083       .  S
C550        C553   1.375       .  A
S551        C552   1.726       .  A
C552        C553   1.389       .  A
C553        H559   1.083       .  S
S554        C555   1.725       .  A
C555        C556   1.385       .  A
C556        H560   1.083       .  S
C561        S567   1.696       .  A
C561        C566   1.388   1_556  A
C561        C562   1.398       .  A
C562        C563   1.397   1_556  A
C562        H573   1.083       .  S
C563        C572   1.368       .  A
C563        C564   1.388       .  A
C564        S570   1.700       .  A
C564        C565   1.401       .  A
C565        C566   1.400       .  A
C565        H574   1.083       .  S
C566        C569   1.372   1_554  A
S567        C568   1.723       .  A
C568        C569   1.385       .  A
C569        H575   1.083       .  S
S570        C571   1.725       .  A
C571        C572   1.382       .  A
C572        H576   1.083       .  S
C577        S583   1.706       .  A
C577        C582   1.387       .  A
C577        C578   1.402       .  A
C578        C579   1.402       .  A
C578        H589   1.083       .  S
C579        C588   1.373       .  A
C579        C580   1.386       .  A
C580        S586   1.712       .  A
C580        C581   1.407       .  A
C581        C582   1.407       .  A
C581        H590   1.083       .  S
C582        C585   1.377       .  A
S583        C584   1.724       .  A
C584        C585   1.391       .  A
C585        H591   1.083       .  S
S586        C587   1.727       .  A
C587        C588   1.388       .  A
C588        H592   1.083       .  S
C593        S599   1.711       .  A
C593        C598   1.386       .  A
C593        C594   1.400   1_556  A
C594        C595   1.403       .  A
C594        H605   1.083       .  S
C595        C604   1.366       .  A
C595        C596   1.386       .  A
C596        S602   1.709       .  A
C596        C597   1.399   1_554  A
C597        C598   1.402       .  A
C597        H606   1.083       .  S
C598        C601   1.365       .  A
S599        C600   1.722       .  A
C600        C601   1.388       .  A
C601        H607   1.083       .  S
S602        C603   1.722       .  A
C603        C604   1.388       .  A
C604        H608   1.083       .  S
C609        S615   1.706       .  A
C609        C614   1.387       .  A
C609        C610   1.403       .  A
C610        C611   1.403       .  A
C610        H621   1.083       .  S
C611        C620   1.374       .  A
C611        C612   1.386       .  A
C612        S618   1.710       .  A
C612        C613   1.405       .  A
C613        C614   1.405       .  A
C613        H622   1.083       .  S
C614        C617   1.377       .  A
S615        C616   1.726       .  A
C616        C617   1.389       .  A
C617        H623   1.083       .  S
S618        C619   1.726       .  A
C619        C620   1.389       .  A
C620        H624   1.083       .  S
C625        S631   1.699       .  A
C625        C630   1.387       .  A
C625        C626   1.400       .  A
C626        C627   1.399       .  A
C626        H637   1.083       .  S
C627        C636   1.372       .  A
C627        C628   1.387       .  A
C628        S634   1.706       .  A
C628        C629   1.405       .  A
C629        C630   1.404       .  A
C629        H638   1.083       .  S
C630        C633   1.377       .  A
S631        C632   1.725       .  A
C632        C633   1.389       .  A
C633        H639   1.083       .  S
S634        C635   1.727       .  A
C635        C636   1.384       .  A
C636        H640   1.083       .  S
C641        S647   1.704       .  A
C641        C646   1.387       .  A
C641        C642   1.404       .  A
C642        C643   1.403       .  A
C642        H653   1.083       .  S
C643        C652   1.375       .  A
C643        C644   1.387       .  A
C644        S650   1.704       .  A
C644        C645   1.403       .  A
C645        C646   1.402       .  A
C645        H654   1.083       .  S
C646        C649   1.374       .  A
S647        C648   1.727       .  A
C648        C649   1.387       .  A
C649        H655   1.083       .  S
S650        C651   1.724       .  A
C651        C652   1.386       .  A
C652        H656   1.083       .  S
C657        S663   1.703       .  A
C657        C662   1.387       .  A
C657        C658   1.401       .  A
C658        C659   1.401       .  A
C658        H669   1.083       .  S
C659        C668   1.371       .  A
C659        C660   1.386       .  A
C660        S666   1.711       .  A
C660        C661   1.406       .  A
C661        C662   1.406       .  A
C661        H670   1.083       .  S
C662        C665   1.378       .  A
S663        C664   1.724       .  A
C664        C665   1.390       .  A
C665        H671   1.083       .  S
S666        C667   1.727       .  A
C667        C668   1.387       .  A
C668        H672   1.083       .  S
C673        S679   1.710       .  A
C673        C678   1.386       .  A
C673        C674   1.402       .  A
C674        C675   1.404       .  A
C674        H685   1.083       .  S
C675        C684   1.370       .  A
C675        C676   1.386       .  A
C676        S682   1.712       .  A
C676        C677   1.403       .  A
C677        C678   1.405       .  A
C677        H686   1.083       .  S
C678        C681   1.371       .  A
S679        C680   1.723       .  A
C680        C681   1.390       .  A
C681        H687   1.083       .  S
S682        C683   1.724       .  A
C683        C684   1.389       .  A
C684        H688   1.083       .  S
C689        S695   1.704       .  A
C689        C694   1.387       .  A
C689        C690   1.404       .  A
C690        C691   1.403       .  A
C690        H701   1.083       .  S
C691        C700   1.378       .  A
C691        C692   1.387       .  A
C692        S698   1.707       .  A
C692        C693   1.406       .  A
C693        C694   1.405       .  A
C693        H702   1.083       .  S
C694        C697   1.380       .  A
S695        C696   1.727       .  A
C696        C697   1.389       .  A
C697        H703   1.083       .  S
S698        C699   1.728       .  A
C699        C700   1.388       .  A
C700        H704   1.083       .  S
C705        S711   1.708       .  A
C705        C710   1.386       .  A
C705        C706   1.404   1_655  A
C706        C707   1.404       .  A
C706        H717   1.083       .  S
C707        C716   1.376       .  A
C707        C708   1.387       .  A
C708        S714   1.706       .  A
C708        C709   1.404       .  A
C709        C710   1.404   1_455  A
C709        H718   1.083       .  S
C710        C713   1.375       .  A
S711        C712   1.726       .  A
C712        C713   1.389       .  A
C713        H719   1.083       .  S
S714        C715   1.726       .  A
C715        C716   1.389       .  A
C716        H720   1.083       .  S
C721        S727   1.708       .  A
C721        C726   1.387   1_556  A
C721        C722   1.400   1_565  A
C722        C723   1.402   1_556  A
C722        H733   1.083       .  S
C723        C732   1.370       .  A
C723        C724   1.386       .  A
C724        S730   1.713       .  A
C724        C725   1.405   1_545  A
C725        C726   1.407       .  A
C725        H734   1.083       .  S
C726        C729   1.374   1_554  A
S727        C728   1.722       .  A
C728        C729   1.391       .  A
C729        H735   1.083   1_556  S
S730        C731   1.726       .  A
C731        C732   1.386       .  A
C732        H736   1.083   1_554  S
C737        S743   1.709       .  A
C737        C742   1.386       .  A
C737        C738   1.400       .  A
C738        C739   1.403       .  A
C738        H749   1.083       .  S
C739        C748   1.368       .  A
C739        C740   1.386       .  A
C740        S746   1.714       .  A
C740        C741   1.405       .  A
C741        C742   1.406       .  A
C741        H750   1.083       .  S
C742        C745   1.372       .  A
S743        C744   1.722       .  A
C744        C745   1.390       .  A
C745        H751   1.083       .  S
S746        C747   1.726       .  A
C747        C748   1.388       .  A
C748        H752   1.083       .  S
C753        S759   1.715       .  A
C753        C758   1.386       .  A
C753        C754   1.405       .  A
C754        C755   1.406       .  A
C754        H765   1.083       .  S
C755        C764   1.372       .  A
C755        C756   1.386       .  A
C756        S762   1.713       .  A
C756        C757   1.403       .  A
C757        C758   1.405       .  A
C757        H766   1.083       .  S
C758        C761   1.371       .  A
S759        C760   1.726       .  A
C760        C761   1.390       .  A
C761        H767   1.083       .  S
S762        C763   1.723       .  A
C763        C764   1.391       .  A
C764        H768   1.083       .  S
C769        S775   1.705   1_556  A
C769        C774   1.387       .  A
C769        C770   1.405   1_556  A
C770        C771   1.403   1_565  A
C770        H781   1.083       .  S
C771        C780   1.379       .  A
C771        C772   1.387   1_554  A
C772        S778   1.707       .  A
C772        C773   1.407       .  A
C773        C774   1.406   1_545  A
C773        H782   1.083       .  S
C774        C777   1.381       .  A
S775        C776   1.725   1_554  A
C776        C777   1.390       .  A
C777        H783   1.083       .  S
S778        C779   1.729   1_556  A
C779        C780   1.388       .  A
C780        H784   1.083       .  S
C785        S791   1.707       .  A
C785        C790   1.387       .  A
C785        C786   1.405       .  A
C786        C787   1.404       .  A
C786        H797   1.083       .  S
C787        C796   1.378       .  A
C787        C788   1.386       .  A
C788        S794   1.705       .  A
C788        C789   1.405       .  A
C789        C790   1.404       .  A
C789        H798   1.083       .  S
C790        C793   1.377       .  A
S791        C792   1.726       .  A
C792        C793   1.388       .  A
C793        H799   1.083       .  S
S794        C795   1.728       .  A
C795        C796   1.390       .  A
C796        H800   1.083       .  S
C801        S807   1.709       .  A
C801        C806   1.387       .  A
C801        C802   1.407       .  A
C802        C803   1.406       .  A
C802        H813   1.083       .  S
C803        C812   1.379       .  A
C803        C804   1.386       .  A
C804        S810   1.702       .  A
C804        C805   1.402       .  A
C805        C806   1.401       .  A
C805        H814   1.083       .  S
C806        C809   1.375       .  A
S807        C808   1.727       .  A
C808        C809   1.386       .  A
C809        H815   1.083       .  S
S810        C811   1.726       .  A
C811        C812   1.391       .  A
C812        H816   1.083       .  S
C817        S823   1.708       .  A
C817        C822   1.387       .  A
C817        C818   1.404       .  A
C818        C819   1.404   1_455  A
C818        H829   1.083       .  S
C819        C828   1.374       .  A
C819        C820   1.387       .  A
C820        S826   1.702       .  A
C820        C821   1.400   1_655  A
C821        C822   1.400       .  A
C821        H830   1.083       .  S
C822        C825   1.369       .  A
S823        C824   1.725       .  A
C824        C825   1.386       .  A
C825        H831   1.083       .  S
S826        C827   1.724       .  A
C827        C828   1.388       .  A
C828        H832   1.083       .  S
C833        S839   1.713       .  A
C833        C838   1.386       .  A
C833        C834   1.405       .  A
C834        C835   1.407       .  A
C834        H845   1.083       .  S
C835        C844   1.374       .  A
C835        C836   1.386   1_556  A
C836        S842   1.710       .  A
C836        C837   1.402       .  A
C837        C838   1.404   1_554  A
C837        H846   1.083       .  S
C838        C841   1.372       .  A
S839        C840   1.726       .  A
C840        C841   1.389       .  A
C841        H847   1.083   1_556  S
S842        C843   1.723       .  A
C843        C844   1.392   1_554  A
C844        H848   1.083       .  S
C849        S855   1.707       .  A
C849        C854   1.387       .  A
C849        C850   1.396   1_554  A
C850        C851   1.400       .  A
C850        H861   1.083       .  S
C851        C860   1.360       .  A
C851        C852   1.387       .  A
C852        S858   1.707       .  A
C852        C853   1.397   1_556  A
C853        C854   1.400       .  A
C853        H862   1.083       .  S
C854        C857   1.360       .  A
S855        C856   1.720       .  A
C856        C857   1.386       .  A
C857        H863   1.084       .  S
S858        C859   1.720       .  A
C859        C860   1.386       .  A
C860        H864   1.083       .  S
C865        S871   1.713       .  A
C865        C870   1.386       .  A
C865        C866   1.405       .  A
C866        C867   1.406       .  A
C866        H877   1.083       .  S
C867        C876   1.375       .  A
C867        C868   1.386       .  A
C868        S874   1.713       .  A
C868        C869   1.405       .  A
C869        C870   1.406       .  A
C869        H878   1.083       .  S
C870        C873   1.375       .  A
S871        C872   1.726       .  A
C872        C873   1.392       .  A
C873        H879   1.083       .  S
S874        C875   1.726       .  A
C875        C876   1.390       .  A
C876        H880   1.083       .  S
C881        S887   1.711       .  A
C881        C886   1.386       .  A
C881        C882   1.402       .  A
C882        C883   1.404       .  A
C882        H893   1.083       .  S
C883        C892   1.370   1_556  A
C883        C884   1.386   1_556  A
C884        S890   1.715       .  A
C884        C885   1.405       .  A
C885        C886   1.407   1_554  A
C885        H894   1.083       .  S
C886        C889   1.373       .  A
S887        C888   1.723       .  A
C888        C889   1.391       .  A
C889        H895   1.083   1_556  S
S890        C891   1.726       .  A
C891        C892   1.389       .  A
C892        H896   1.083   1_554  S
C897        S903   1.711   1_556  A
C897        C902   1.386   1_556  A
C897        C898   1.399       .  A
C898        C899   1.403       .  A
C898        H909   1.083       .  S
C899        C908   1.362       .  A
C899        C900   1.387       .  A
C900        S906   1.705       .  A
C900        C901   1.394       .  A
C901        C902   1.398   1_556  A
C901        H910   1.083   1_556  S
C902        C905   1.358       .  A
S903        C904   1.722       .  A
C904        C905   1.385       .  A
C905        H911   1.084       .  S
S906        C907   1.718       .  A
C907        C908   1.388       .  A
C908        H912   1.083       .  S
C913        S919   1.715       .  A
C913        C918   1.386       .  A
C913        C914   1.408       .  A
C914        C915   1.409       .  A
C914        H925   1.083       .  S
C915        C924   1.380       .  A
C915        C916   1.386       .  A
C916        S922   1.709       .  A
C916        C917   1.404       .  A
C917        C918   1.404       .  A
C917        H926   1.083       .  S
C918        C921   1.375       .  A
S919        C920   1.728       .  A
C920        C921   1.390       .  A
C921        H927   1.083       .  S
S922        C923   1.726       .  A
C923        C924   1.393       .  A
C924        H928   1.083       .  S
C929        S935   1.705       .  A
C929        C934   1.387       .  A
C929        C930   1.402       .  A
C930        C931   1.402       .  A
C930        H941   1.083       .  S
C931        C940   1.372       .  A
C931        C932   1.387       .  A
C932        S938   1.705       .  A
C932        C933   1.401       .  A
C933        C934   1.401       .  A
C933        H942   1.083       .  S
C934        C937   1.371       .  A
S935        C936   1.725       .  A
C936        C937   1.386       .  A
C937        H943   1.083       .  S
S938        C939   1.724       .  A
C939        C940   1.387       .  A
C940        H944   1.083       .  S
C945        S951   1.707       .  A
C945        C950   1.387       .  A
C945        C946   1.406       .  A
C946        C947   1.405   1_545  A
C946        H957   1.083       .  S
C947        C956   1.380       .  A
C947        C948   1.387       .  A
C948        S954   1.705       .  A
C948        C949   1.405       .  A
C949        C950   1.404   1_565  A
C949        H958   1.083       .  S
C950        C953   1.378       .  A
S951        C952   1.727       .  A
C952        C953   1.388       .  A
C953        H959   1.083       .  S
S954        C955   1.727       .  A
C955        C956   1.389       .  A
C956        H960   1.083       .  S
C961        S967   1.701       .  A
C961        C966   1.388       .  A
C961        C962   1.401       .  A
C962        C963   1.401       .  A
C962        H973   1.083       .  S
C963        C972   1.371       .  A
C963        C964   1.387       .  A
C964        S970   1.697       .  A
C964        C965   1.398       .  A
C965        C966   1.397       .  A
C965        H974   1.083       .  S
C966        C969   1.368       .  A
S967        C968   1.724       .  A
C968        C969   1.382       .  A
C969        H975   1.083       .  S
S970        C971   1.723       .  A
C971        C972   1.385       .  A
C972        H976   1.083       .  S
C977        S983   1.710       .  A
C977        C982   1.386       .  A
C977        C978   1.407       .  A
C978        C979   1.406       .  A
C978        H989   1.083       .  S
C979        C988   1.379       .  A
C979        C980   1.386       .  A
C980        S986   1.710       .  A
C980        C981   1.407       .  A
C981        C982   1.406       .  A
C981        H990   1.083       .  S
C982        C985   1.379       .  A
S983        C984   1.728       .  A
C984        C985   1.392       .  A
C985        H991   1.083       .  S
S986        C987   1.728       .  A
C987        C988   1.391       .  A
C988        H992   1.083       .  S
C993        S999   1.714       .  A
C993        C998   1.386       .  A
C993        C994   1.406       .  A
C994        C995   1.407       .  A
C994       H1005   1.083       .  S
C995       C1004   1.374       .  A
C995        C996   1.386       .  A
C996       S1002   1.713       .  A
C996        C997   1.404       .  A
C997        C998   1.406       .  A
C997       H1006   1.083       .  S
C998       C1001   1.374       .  A
S999       C1000   1.726       .  A
C1000      C1001   1.391       .  A
C1001      H1007   1.083       .  S
S1002      C1003   1.725       .  A
C1003      C1004   1.392       .  A
C1004      H1008   1.083       .  S
C1009      S1015   1.711       .  A
C1009      C1014   1.387       .  A
C1009      C1010   1.408       .  A
C1010      C1011   1.407       .  A
C1010      H1021   1.083       .  S
C1011      C1020   1.381       .  A
C1011      C1012   1.387       .  A
C1012      S1018   1.701       .  A
C1012      C1013   1.402       .  A
C1013      C1014   1.401       .  A
C1013      H1022   1.083       .  S
C1014      C1017   1.375       .  A
S1015      C1016   1.727       .  A
C1016      C1017   1.386       .  A
C1017      H1023   1.083       .  S
S1018      C1019   1.726       .  A
C1019      C1020   1.391       .  A
C1020      H1024   1.083       .  S
C1025      S1031   1.714       .  A
C1025      C1030   1.386       .  A
C1025      C1026   1.405   1_565  A
C1026      C1027   1.406       .  A
C1026      H1037   1.083       .  S
C1027      C1036   1.374       .  A
C1027      C1028   1.386       .  A
C1028      S1034   1.711       .  A
C1028      C1029   1.403   1_545  A
C1029      C1030   1.404       .  A
C1029      H1038   1.083       .  S
C1030      C1033   1.371       .  A
S1031      C1032   1.725       .  A
C1032      C1033   1.390       .  A
C1033      H1039   1.083       .  S
S1034      C1035   1.723       .  A
C1035      C1036   1.390       .  A
C1036      H1040   1.083       .  S
C1041      S1047   1.706       .  A
C1041      C1046   1.387       .  A
C1041      C1042   1.407       .  A
C1042      C1043   1.405       .  A
C1042      H1053   1.083       .  S
C1043      C1052   1.379       .  A
C1043      C1044   1.387       .  A
C1044      S1050   1.702       .  A
C1044      C1045   1.402       .  A
C1045      C1046   1.401       .  A
C1045      H1054   1.083       .  S
C1046      C1049   1.375       .  A
S1047      C1048   1.729       .  A
C1048      C1049   1.387       .  A
C1049      H1055   1.083       .  S
S1050      C1051   1.724       .  A
C1051      C1052   1.389       .  A
C1052      H1056   1.083       .  S
C1057      S1063   1.715       .  A
C1057      C1062   1.386       .  A
C1057      C1058   1.405       .  A
C1058      C1059   1.407       .  A
C1058      H1069   1.083       .  S
C1059      C1068   1.372       .  A
C1059      C1060   1.386       .  A
C1060      S1066   1.709       .  A
C1060      C1061   1.400       .  A
C1061      C1062   1.402       .  A
C1061      H1070   1.083       .  S
C1062      C1065   1.367       .  A
S1063      C1064   1.726       .  A
C1064      C1065   1.389       .  A
C1065      H1071   1.083       .  S
S1066      C1067   1.721       .  A
C1067      C1068   1.390       .  A
C1068      H1072   1.083       .  S
C1073      S1079   1.702       .  A
C1073      C1078   1.387       .  A
C1073      C1074   1.399       .  A
C1074      C1075   1.400       .  A
C1074      H1085   1.083       .  S
C1075      C1084   1.369       .  A
C1075      C1076   1.387       .  A
C1076      S1082   1.709       .  A
C1076      C1077   1.404       .  A
C1077      C1078   1.404       .  A
C1077      H1086   1.083       .  S
C1078      C1081   1.374       .  A
S1079      C1080   1.723       .  A
C1080      C1081   1.388       .  A
C1081      H1087   1.083       .  S
S1082      C1083   1.726       .  A
C1083      C1084   1.386       .  A
C1084      H1088   1.083       .  S
C1089      S1095   1.710       .  A
C1089      C1094   1.386       .  A
C1089      C1090   1.397       .  A
C1090      C1091   1.401       .  A
C1090      H1101   1.083       .  S
C1091      C1100   1.360       .  A
C1091      C1092   1.386       .  A
C1092      S1098   1.708       .  A
C1092      C1093   1.397       .  A
C1093      C1094   1.401       .  A
C1093      H1102   1.083       .  S
C1094      C1097   1.359       .  A
S1095      C1096   1.719       .  A
C1096      C1097   1.388       .  A
C1097      H1103   1.084       .  S
S1098      C1099   1.720       .  A
C1099      C1100   1.387       .  A
C1100      H1104   1.083       .  S
C1105      S1111   1.710       .  A
C1105      C1110   1.386       .  A
C1105      C1106   1.407       .  A
C1106      C1107   1.406       .  A
C1106      H1117   1.083       .  S
C1107      C1116   1.379       .  A
C1107      C1108   1.387       .  A
C1108      S1114   1.706       .  A
C1108      C1109   1.403       .  A
C1109      C1110   1.403       .  A
C1109      H1118   1.083       .  S
C1110      C1113   1.374       .  A
S1111      C1112   1.727       .  A
C1112      C1113   1.388       .  A
C1113      H1119   1.083       .  S
S1114      C1115   1.726       .  A
C1115      C1116   1.391       .  A
C1116      H1120   1.083       .  S
