geometry optimzed in LAMMPS
_audit_creation_date              2020-11-30 
_audit_creation_method            'lammps2cif' 
_symmetry_space_group_name_H-M    'P1' 
_symmetry_Int_Tables_number       1 
_symmetry_cell_setting            triclinic 
loop_ 
_symmetry_equiv_pos_as_xyz 
  x,y,z 
_cell_length_a                    46.937916403852014 
_cell_length_b                    25.041218642432064 
_cell_length_c                    28.108283109025724 
_cell_angle_alpha                 90.00000304707223 
_cell_angle_beta                  93.03210706390482 
_cell_angle_gamma                 89.99992935006476 
loop_ 
_atom_site_label 
_atom_site_type_symbol 
_atom_site_fract_x 
_atom_site_fract_y 
_atom_site_fract_z 
_atom_site_charge 
Fe1        Fe  0.42426962  0.20643498  0.35739839     1.65780
Fe2        Fe  0.43521394  0.32620916  0.30829586     1.73250
Fe3        Fe  0.38035120  0.30747550  0.37740620     1.54420
O4          O  0.35201535  0.24545041  0.36272178    -0.83050
O5          O  0.42194113  0.40143613  0.33683057    -0.81350
O6          O  0.38295949  0.17817517  0.36754744    -0.85550
O7          O  0.43141060  0.22001493  0.42768279    -0.80410
O8          O  0.36787762  0.34344390  0.30852965    -0.82180
O9          O  0.46820885  0.31549842  0.35747020    -0.84930
C10         C  0.41710319  0.24660662  0.45626017     0.95840
C11         C  0.35745451  0.19607913  0.36684557     1.03280
O12         O  0.41203249  0.27922204  0.34662106    -1.13910
O13         O  0.44603279  0.25868944  0.27001059    -0.76340
O14         O  0.41615355  0.19419494  0.28628922    -0.79830
O15         O  0.39459346  0.27350336  0.44338747    -0.80520
C16         C  0.42699792  0.22462862  0.25640047     0.94740
O17         O  0.46781472  0.22652440  0.35189678    -0.78470
O18         O  0.40403209  0.33589912  0.25911862    -0.83670
C19         C  0.40699522  0.40615761  0.37297501     0.97360
C20         C  0.37884762  0.34834325  0.26693273     1.03280
O21         O  0.40609167  0.36726588  0.40005328    -0.79310
C22         C  0.48056271  0.27052502  0.36268295     1.01580
Fe23       Fe  0.31698476  0.51197030  0.13508909     1.65780
Fe24       Fe  0.30601801  0.39219302  0.18416854     1.73250
Fe25       Fe  0.36088781  0.41091198  0.11505928     1.54420
O26         O  0.34664349  0.44489307  0.04908477    -0.83050
O27         O  0.33720151  0.38246097  0.23333696    -0.81350
O28         O  0.30983481  0.49839808  0.06480418    -0.85550
O29         O  0.35829555  0.04021405  0.12493048    -0.80410
O30         O  0.33514007  0.35112894  0.09241225    -0.82180
O31         O  0.29521752  0.45970983  0.22247516    -0.84930
C32         C  0.38379914  0.02230702  0.12562663     0.95840
C33         C  0.32413536  0.47179893  0.03622119     1.03280
O34         O  0.32920876  0.43917278  0.14585003    -1.13910
O35         O  0.27301620  0.40295288  0.13501219    -0.76340
O36         O  0.27343727  0.49192428  0.14061255    -0.79830
O37         O  0.38923407  0.47293190  0.12974073    -0.80520
C38         C  0.26066991  0.44793995  0.12984351     0.94740
O39         O  0.32510924  0.02418817  0.20619786    -0.78470
O40         O  0.31927069  0.31695752  0.15561815    -0.83670
C41         C  0.36238715  0.37002326  0.22552418     0.97370
C42         C  0.33422724  0.31223416  0.11948649     1.03280
O43         O  0.37335986  0.37493473  0.18393082    -0.79310
C44         C  0.31425539  0.49376469  0.23608529     1.01580
Fe45       Fe  0.31696968  0.45644161  0.38508664     1.65780
Fe46       Fe  0.30602708  0.07621612  0.43418525     1.73250
Fe47       Fe  0.36088983  0.05747666  0.36507267     1.54420
O48         O  0.38922527  0.49545152  0.37976084    -0.83050
O49         O  0.31929552  0.15144009  0.40564046    -0.81350
O50         O  0.35827912  0.42818041  0.37492572    -0.85550
O51         O  0.30982484  0.47002448  0.31480366    -0.80410
O52         O  0.37336540  0.09345200  0.43394465    -0.82180
O53         O  0.27302607  0.06549835  0.38502584    -0.84930
C54         C  0.32413653  0.99660618  0.28622484     0.95840
C55         C  0.38378486  0.44608131  0.37562995     1.03280
O56         O  0.32920732  0.02922792  0.39585943    -1.13910
O57         O  0.29521157  0.00870029  0.47247806    -0.76340
O58         O  0.32509063  0.44420523  0.45619451    -0.79830
O59         O  0.34664826  0.02349719  0.29909594    -0.80520
C60         C  0.31424538  0.47463648  0.48608485     0.94740
O61         O  0.27342411  0.97652495  0.39060596    -0.78470
O62         O  0.33721142  0.08591222  0.48335615    -0.83670
C63         C  0.33424333  0.15615790  0.36949790     0.97360
C64         C  0.36239578  0.09835463  0.47554118     1.03280
O65         O  0.33514836  0.11726418  0.34242204    -0.79310
C66         C  0.26066811  0.02052526  0.37984717     1.01580
Fe67       Fe  0.42425436  0.26197650  0.10739592     1.65780
Fe68       Fe  0.43522307  0.14219932  0.05831295     1.73250
Fe69       Fe  0.38035311  0.16091308  0.12741967     1.54410
O70         O  0.39459819  0.19488675  0.19339873    -0.83050
O71         O  0.40404212  0.13247310  0.00913813    -0.81350
O72         O  0.43140057  0.24840713  0.17768224    -0.85550
O73         O  0.38294294  0.29021912  0.11754286    -0.80410
O74         O  0.40609980  0.10112701  0.15006332    -0.82180
O75         O  0.44602670  0.20971983  0.02001354    -0.84930
C76         C  0.35744012  0.27230928  0.11684905     0.95840
C77         C  0.41710438  0.22179806  0.20626382     1.03280
O78         O  0.41203097  0.18917824  0.09663059    -1.13910
O79         O  0.46821878  0.15295256  0.10748425    -0.76340
O80         O  0.46780137  0.24192451  0.10188994    -0.79830
O81         O  0.35200643  0.22293317  0.11274191    -0.80520
C82         C  0.48056085  0.19794003  0.11268668     0.94740
O83         O  0.41613467  0.27419781  0.03628587    -0.78470
O84         O  0.42196613  0.06696091  0.08685347    -0.83670
C85         C  0.37885626  0.12003440  0.01694984     0.97370
C86         C  0.40701122  0.06223415  0.12298675     1.03280
O87         O  0.36788307  0.12494292  0.05854349    -0.79310
C88         C  0.42698776  0.24377185  0.00640006     1.01580
Fe89       Fe  0.06697023  0.20650838  0.38517139     1.65780
Fe90       Fe  0.05600121  0.32628581  0.43425366     1.73250
Fe91       Fe  0.11087130  0.30757204  0.36514716     1.54410
O92         O  0.13921811  0.24555208  0.37982509    -0.83050
O93         O  0.06925787  0.40152424  0.40571276    -0.81350
O94         O  0.10828170  0.17826596  0.37502479    -0.85550
O95         O  0.05982405  0.22007736  0.31488500    -0.80410
O96         O  0.12334125  0.34354252  0.43402320    -0.82180
O97         O  0.02300560  0.31553185  0.38508237    -0.84930
C98         C  0.07412007  0.24668669  0.28630334     0.95840
C99         C  0.13378449  0.19617588  0.37571843     1.03280
O100        O  0.07919347  0.27930682  0.39593635    -1.13910
O101        O  0.04519776  0.25876549  0.47255357    -0.76340
O102        O  0.07508990  0.19428757  0.45628150    -0.79830
O103        O  0.09662623  0.27359814  0.29916826    -0.80520
C104        C  0.06423671  0.22471353  0.48616720     0.94740
O105        O  0.02342313  0.22655996  0.39067718    -0.78470
O106        O  0.08718210  0.33601280  0.48342845    -0.83670
C107        C  0.08421294  0.40625094  0.36957968     0.97360
C108        C  0.11236799  0.34845133  0.47561678     1.03280
O109        O  0.08512454  0.36735797  0.34250327    -0.79310
C110        C  0.01066355  0.27054432  0.37988033     1.01580
Fe111      Fe  0.17425501  0.51204344  0.10748024     1.65780
Fe112      Fe  0.18519721  0.39226890  0.05838136     1.73250
Fe113      Fe  0.13033457  0.41100891  0.12749398     1.54420
O114        O  0.14457616  0.44498838  0.19347074    -0.83050
O115        O  0.15401284  0.38257342  0.00921043    -0.81350
O116        O  0.18139988  0.49846043  0.17776319    -0.85550
O117        O  0.13294562  0.04030500  0.11764144    -0.80410
O118        O  0.15607589  0.35122128  0.15014468    -0.82180
O119        O  0.19601295  0.45978468  0.02008877    -0.84930
C120        C  0.10743984  0.02240423  0.11693707     0.95840
C121        C  0.16708797  0.47187910  0.20634197     1.03280
O122        O  0.16201716  0.43925732  0.09670730    -1.13910
O123        O  0.21819832  0.40298609  0.10754077    -0.76340
O124        O  0.21780047  0.49195952  0.10196077    -0.79830
O125        O  0.10199933  0.47303414  0.11280571    -0.80520
C126        C  0.23055634  0.44795911  0.11271963     0.94740
O127        O  0.16613406  0.02427997  0.03637239    -0.78470
O128        O  0.17192842  0.31704516  0.08692609    -0.83670
C129        C  0.12882848  0.37013108  0.01702542     0.97360
C130        C  0.15698074  0.31232756  0.12306882     1.03280
O131        O  0.11785891  0.37503362  0.05862200    -0.79310
C132        C  0.17697915  0.49384853  0.00648204     1.01580
Fe133      Fe  0.06695448  0.26205007  0.13516888     1.65780
Fe134      Fe  0.05601055  0.14227585  0.18427168     1.73250
Fe135      Fe  0.11087318  0.16101006  0.11516130     1.54420
O136        O  0.09663091  0.19498221  0.04918000    -0.83050
O137        O  0.08719244  0.13258651  0.23344894    -0.81350
O138        O  0.05981347  0.24846996  0.06488450    -0.85550
O139        O  0.10826455  0.29031024  0.12501955    -0.80410
O140        O  0.08513287  0.10121958  0.09251414    -0.82180
O141        O  0.04519147  0.20979551  0.22255673    -0.84930
C142        C  0.13376957  0.27240641  0.12572155     0.95840
C143        C  0.07412109  0.22187866  0.03630718     1.03280
O144        O  0.07919182  0.18926319  0.14594636    -1.13910
O145        O  0.02301556  0.15298602  0.13509733    -0.76340
O146        O  0.02340949  0.24196007  0.14067064    -0.79830
O147        O  0.13920883  0.22303524  0.12984582    -0.80520
C148        C  0.01066162  0.19795934  0.12988439     0.94740
O149        O  0.07507055  0.27429025  0.20627803    -0.78470
O150        O  0.06928371  0.06704911  0.15573702    -0.83670
C151        C  0.11237690  0.12014246  0.22563481     0.97360
C152        C  0.08422950  0.06232784  0.11959241     1.03280
O153        O  0.12334686  0.12504173  0.18403785    -0.79310
C154        C  0.06422632  0.24385637  0.23616680     1.01580
Fe155      Fe  0.17423943  0.45651459  0.35747774     1.65780
Fe156      Fe  0.18520650  0.07629212  0.30839901     1.73250
Fe157      Fe  0.13033656  0.05757315  0.37750804     1.54330
O158        O  0.10199016  0.49555334  0.36282642    -0.83050
O159        O  0.17195410  0.15152764  0.33694979    -0.81350
O160        O  0.13292859  0.42827103  0.36763602    -0.85550
O161        O  0.18138935  0.47008641  0.42776272    -0.80410
O162        O  0.11786460  0.09355071  0.30863663    -0.82180
O163        O  0.21820821  0.06553154  0.35755535    -0.84930
C164        C  0.16708898  0.99668582  0.45634580     0.95840
C165        C  0.10742504  0.44617814  0.36694005     1.03280
O166        O  0.16201558  0.02931230  0.34671719    -1.13910
O167        O  0.19600680  0.00877550  0.27009188    -0.76340
O168        O  0.16611497  0.44429723  0.28636892    -0.79830
O169        O  0.14458087  0.02359182  0.44348240    -0.80520
C170        C  0.17696893  0.47472070  0.25648161     0.94740
O171        O  0.21778702  0.97656020  0.35195448    -0.78470
O172        O  0.15402307  0.08602495  0.25923063    -0.83670
C173        C  0.15699738  0.15625094  0.37308124     0.97370
C174        C  0.12883738  0.09846247  0.26704336     1.03280
O175        O  0.15608438  0.11735603  0.40015532    -0.79310
C176        C  0.23055447  0.02054440  0.36272364     1.01580
Fe177      Fe  0.42426962  0.20643497  0.85739838     1.65780
Fe178      Fe  0.43521394  0.32620916  0.80829586     1.73250
Fe179      Fe  0.38035120  0.30747549  0.87740620     1.54420
O180        O  0.35201535  0.24545041  0.86272178    -0.83050
O181        O  0.42194113  0.40143613  0.83683057    -0.81350
O182        O  0.38295949  0.17817517  0.86754744    -0.85550
O183        O  0.43141060  0.22001493  0.92768279    -0.80410
O184        O  0.36787761  0.34344389  0.80852965    -0.82180
O185        O  0.46820884  0.31549842  0.85747020    -0.84930
C186        C  0.41710319  0.24660661  0.95626016     0.95840
C187        C  0.35745451  0.19607913  0.86684557     1.03280
O188        O  0.41203248  0.27922204  0.84662106    -1.13910
O189        O  0.44603279  0.25868944  0.77001059    -0.76340
O190        O  0.41615354  0.19419494  0.78628922    -0.79830
O191        O  0.39459346  0.27350335  0.94338747    -0.80520
C192        C  0.42699792  0.22462862  0.75640047     0.94740
O193        O  0.46781472  0.22652440  0.85189678    -0.78470
O194        O  0.40403209  0.33589912  0.75911863    -0.83670
C195        C  0.40699521  0.40615761  0.87297501     0.97360
C196        C  0.37884762  0.34834325  0.76693273     1.03280
O197        O  0.40609167  0.36726588  0.90005329    -0.79310
C198        C  0.48056271  0.27052502  0.86268295     1.01580
Fe199      Fe  0.31698476  0.51197030  0.63508909     1.65780
Fe200      Fe  0.30601801  0.39219302  0.68416854     1.73250
Fe201      Fe  0.36088781  0.41091198  0.61505929     1.54420
O202        O  0.34664349  0.44489307  0.54908477    -0.83050
O203        O  0.33720150  0.38246097  0.73333696    -0.81350
O204        O  0.30983481  0.49839809  0.56480418    -0.85550
O205        O  0.35829555  0.04021406  0.62493048    -0.80410
O206        O  0.33514007  0.35112895  0.59241224    -0.82180
O207        O  0.29521752  0.45970983  0.72247516    -0.84930
C208        C  0.38379914  0.02230703  0.62562663     0.95840
C209        C  0.32413536  0.47179894  0.53622119     1.03280
O210        O  0.32920876  0.43917278  0.64585003    -1.13910
O211        O  0.27301620  0.40295288  0.63501219    -0.76340
O212        O  0.27343727  0.49192428  0.64061255    -0.79830
O213        O  0.38923407  0.47293191  0.62974074    -0.80520
C214        C  0.26066991  0.44793996  0.62984351     0.94740
O215        O  0.32510924  0.02418817  0.70619786    -0.78470
O216        O  0.31927069  0.31695752  0.65561815    -0.83670
C217        C  0.36238715  0.37002326  0.72552418     0.97370
C218        C  0.33422724  0.31223416  0.61948649     1.03280
O219        O  0.37335986  0.37493473  0.68393082    -0.79310
C220        C  0.31425539  0.49376469  0.73608529     1.01580
Fe221      Fe  0.31696967  0.45644161  0.88508664     1.65780
Fe222      Fe  0.30602708  0.07621612  0.93418525     1.73250
Fe223      Fe  0.36088983  0.05747665  0.86507267     1.54420
O224        O  0.38922527  0.49545151  0.87976084    -0.83050
O225        O  0.31929552  0.15144009  0.90564046    -0.81350
O226        O  0.35827912  0.42818041  0.87492572    -0.85550
O227        O  0.30982484  0.47002448  0.81480366    -0.80410
O228        O  0.37336540  0.09345200  0.93394465    -0.82180
O229        O  0.27302606  0.06549835  0.88502584    -0.84930
C230        C  0.32413653  0.99660618  0.78622484     0.95840
C231        C  0.38378486  0.44608131  0.87562995     1.03280
O232        O  0.32920732  0.02922792  0.89585943    -1.13910
O233        O  0.29521157  0.00870028  0.97247806    -0.76340
O234        O  0.32509062  0.44420523  0.95619451    -0.79830
O235        O  0.34664826  0.02349719  0.79909594    -0.80520
C236        C  0.31424538  0.47463647  0.98608485     0.94740
O237        O  0.27342410  0.97652495  0.89060596    -0.78470
O238        O  0.33721142  0.08591222  0.98335615    -0.83670
C239        C  0.33424333  0.15615789  0.86949791     0.97360
C240        C  0.36239578  0.09835463  0.97554119     1.03280
O241        O  0.33514836  0.11726418  0.84242205    -0.79310
C242        C  0.26066811  0.02052526  0.87984717     1.01580
Fe243      Fe  0.42425436  0.26197650  0.60739593     1.65780
Fe244      Fe  0.43522307  0.14219932  0.55831295     1.73250
Fe245      Fe  0.38035311  0.16091309  0.62741967     1.54410
O246        O  0.39459819  0.19488675  0.69339873    -0.83050
O247        O  0.40404212  0.13247310  0.50913812    -0.81350
O248        O  0.43140057  0.24840713  0.67768224    -0.85550
O249        O  0.38294294  0.29021912  0.61754286    -0.80410
O250        O  0.40609980  0.10112701  0.65006332    -0.82180
O251        O  0.44602670  0.20971983  0.52001354    -0.84930
C252        C  0.35744012  0.27230928  0.61684905     0.95840
C253        C  0.41710437  0.22179806  0.70626382     1.03280
O254        O  0.41203097  0.18917825  0.59663059    -1.13910
O255        O  0.46821878  0.15295256  0.60748425    -0.76340
O256        O  0.46780137  0.24192452  0.60188994    -0.79830
O257        O  0.35200643  0.22293317  0.61274191    -0.80520
C258        C  0.48056085  0.19794003  0.61268668     0.94740
O259        O  0.41613468  0.27419781  0.53628587    -0.78470
O260        O  0.42196613  0.06696091  0.58685347    -0.83670
C261        C  0.37885626  0.12003440  0.51694984     0.97370
C262        C  0.40701122  0.06223416  0.62298675     1.03280
O263        O  0.36788307  0.12494292  0.55854349    -0.79310
C264        C  0.42698776  0.24377185  0.50640006     1.01580
Fe265      Fe  0.06697023  0.20650838  0.88517139     1.65780
Fe266      Fe  0.05600120  0.32628581  0.93425366     1.73250
Fe267      Fe  0.11087130  0.30757204  0.86514716     1.54410
O268        O  0.13921811  0.24555207  0.87982509    -0.83050
O269        O  0.06925787  0.40152424  0.90571276    -0.81350
O270        O  0.10828170  0.17826596  0.87502479    -0.85550
O271        O  0.05982405  0.22007736  0.81488500    -0.80410
O272        O  0.12334125  0.34354252  0.93402321    -0.82180
O273        O  0.02300559  0.31553185  0.88508237    -0.84930
C274        C  0.07412007  0.24668669  0.78630334     0.95840
C275        C  0.13378449  0.19617588  0.87571844     1.03280
O276        O  0.07919347  0.27930682  0.89593635    -1.13910
O277        O  0.04519776  0.25876548  0.97255357    -0.76340
O278        O  0.07508989  0.19428757  0.95628150    -0.79830
O279        O  0.09662623  0.27359813  0.79916826    -0.80520
C280        C  0.06423671  0.22471353  0.98616720     0.94740
O281        O  0.02342312  0.22655996  0.89067718    -0.78470
O282        O  0.08718210  0.33601280  0.98342845    -0.83670
C283        C  0.08421293  0.40625094  0.86957968     0.97360
C284        C  0.11236799  0.34845133  0.97561678     1.03280
O285        O  0.08512453  0.36735796  0.84250327    -0.79310
C286        C  0.01066355  0.27054432  0.87988033     1.01580
Fe287      Fe  0.17425501  0.51204344  0.60748024     1.65780
Fe288      Fe  0.18519721  0.39226890  0.55838136     1.73250
Fe289      Fe  0.13033457  0.41100891  0.62749398     1.54420
O290        O  0.14457616  0.44498838  0.69347074    -0.83050
O291        O  0.15401284  0.38257342  0.50921043    -0.81350
O292        O  0.18139988  0.49846043  0.67776319    -0.85550
O293        O  0.13294562  0.04030501  0.61764144    -0.80410
O294        O  0.15607589  0.35122129  0.65014468    -0.82180
O295        O  0.19601296  0.45978468  0.52008877    -0.84930
C296        C  0.10743984  0.02240423  0.61693707     0.95840
C297        C  0.16708797  0.47187910  0.70634197     1.03280
O298        O  0.16201716  0.43925732  0.59670730    -1.13910
O299        O  0.21819832  0.40298609  0.60754077    -0.76340
O300        O  0.21780047  0.49195952  0.60196077    -0.79830
O301        O  0.10199934  0.47303414  0.61280570    -0.80520
C302        C  0.23055634  0.44795911  0.61271963     0.94740
O303        O  0.16613406  0.02427998  0.53637239    -0.78470
O304        O  0.17192842  0.31704516  0.58692609    -0.83670
C305        C  0.12882848  0.37013108  0.51702542     0.97360
C306        C  0.15698074  0.31232756  0.62306882     1.03280
O307        O  0.11785891  0.37503363  0.55862200    -0.79310
C308        C  0.17697916  0.49384854  0.50648204     1.01580
Fe309      Fe  0.06695448  0.26205007  0.63516889     1.65780
Fe310      Fe  0.05601055  0.14227586  0.68427167     1.73250
Fe311      Fe  0.11087318  0.16101007  0.61516130     1.54420
O312        O  0.09663091  0.19498221  0.54918000    -0.83050
O313        O  0.08719243  0.13258651  0.73344894    -0.81350
O314        O  0.05981347  0.24846997  0.56488450    -0.85550
O315        O  0.10826455  0.29031024  0.62501956    -0.80410
O316        O  0.08513287  0.10121958  0.59251414    -0.82180
O317        O  0.04519147  0.20979551  0.72255673    -0.84930
C318        C  0.13376958  0.27240641  0.62572155     0.95840
C319        C  0.07412109  0.22187866  0.53630718     1.03280
O320        O  0.07919182  0.18926319  0.64594636    -1.13910
O321        O  0.02301556  0.15298602  0.63509732    -0.76340
O322        O  0.02340949  0.24196007  0.64067064    -0.79830
O323        O  0.13920883  0.22303525  0.62984582    -0.80520
C324        C  0.01066162  0.19795934  0.62988439     0.94740
O325        O  0.07507055  0.27429026  0.70627803    -0.78470
O326        O  0.06928371  0.06704911  0.65573702    -0.83670
C327        C  0.11237690  0.12014246  0.72563481     0.97360
C328        C  0.08422950  0.06232784  0.61959240     1.03280
O329        O  0.12334686  0.12504173  0.68403786    -0.79310
C330        C  0.06422632  0.24385637  0.73616680     1.01580
Fe331      Fe  0.17423943  0.45651459  0.85747774     1.65780
Fe332      Fe  0.18520650  0.07629212  0.80839901     1.73250
Fe333      Fe  0.13033655  0.05757315  0.87750804     1.54330
O334        O  0.10199016  0.49555334  0.86282642    -0.83050
O335        O  0.17195410  0.15152763  0.83694979    -0.81350
O336        O  0.13292859  0.42827103  0.86763602    -0.85550
O337        O  0.18138934  0.47008641  0.92776272    -0.80410
O338        O  0.11786460  0.09355071  0.80863663    -0.82180
O339        O  0.21820821  0.06553154  0.85755535    -0.84930
C340        C  0.16708898  0.99668582  0.95634580     0.95840
C341        C  0.10742503  0.44617813  0.86694005     1.03280
O342        O  0.16201558  0.02931229  0.84671719    -1.13910
O343        O  0.19600680  0.00877550  0.77009188    -0.76340
O344        O  0.16611496  0.44429723  0.78636892    -0.79830
O345        O  0.14458087  0.02359182  0.94348240    -0.80520
C346        C  0.17696893  0.47472070  0.75648161     0.94740
O347        O  0.21778702  0.97656020  0.85195448    -0.78470
O348        O  0.15402306  0.08602495  0.75923063    -0.83670
C349        C  0.15699738  0.15625094  0.87308124     0.97370
C350        C  0.12883738  0.09846247  0.76704337     1.03280
O351        O  0.15608437  0.11735603  0.90015532    -0.79310
C352        C  0.23055447  0.02054440  0.86272364     1.01580
Fe353      Fe  0.42426962  0.70643497  0.35739838     1.65780
Fe354      Fe  0.43521394  0.82620915  0.30829586     1.73250
Fe355      Fe  0.38035120  0.80747549  0.37740620     1.54420
O356        O  0.35201535  0.74545041  0.36272178    -0.83050
O357        O  0.42194113  0.90143613  0.33683057    -0.81350
O358        O  0.38295949  0.67817517  0.36754744    -0.85550
O359        O  0.43141060  0.72001493  0.42768279    -0.80410
O360        O  0.36787762  0.84344389  0.30852965    -0.82180
O361        O  0.46820885  0.81549841  0.35747020    -0.84930
C362        C  0.41710319  0.74660661  0.45626016     0.95840
C363        C  0.35745451  0.69607913  0.36684557     1.03280
O364        O  0.41203249  0.77922203  0.34662106    -1.13910
O365        O  0.44603279  0.75868944  0.27001059    -0.76340
O366        O  0.41615354  0.69419493  0.28628922    -0.79830
O367        O  0.39459346  0.77350335  0.44338747    -0.80520
C368        C  0.42699792  0.72462862  0.25640047     0.94740
O369        O  0.46781472  0.72652439  0.35189678    -0.78470
O370        O  0.40403209  0.83589911  0.25911862    -0.83670
C371        C  0.40699522  0.90615761  0.37297501     0.97360
C372        C  0.37884763  0.84834325  0.26693273     1.03280
O373        O  0.40609167  0.86726588  0.40005328    -0.79310
C374        C  0.48056271  0.77052501  0.36268295     1.01580
Fe375      Fe  0.31698476  0.01197030  0.13508909     1.65780
Fe376      Fe  0.30601801  0.89219302  0.18416854     1.73250
Fe377      Fe  0.36088782  0.91091198  0.11505929     1.54420
O378        O  0.34664349  0.94489307  0.04908477    -0.83050
O379        O  0.33720151  0.88246097  0.23333696    -0.81350
O380        O  0.30983481  0.99839808  0.06480418    -0.85550
O381        O  0.35829555  0.54021405  0.12493048    -0.80410
O382        O  0.33514007  0.85112895  0.09241225    -0.82180
O383        O  0.29521752  0.95970983  0.22247516    -0.84930
C384        C  0.38379913  0.52230702  0.12562662     0.95840
C385        C  0.32413536  0.97179894  0.03622119     1.03280
O386        O  0.32920877  0.93917278  0.14585003    -1.13910
O387        O  0.27301620  0.90295288  0.13501219    -0.76340
O388        O  0.27343727  0.99192428  0.14061255    -0.79830
O389        O  0.38923407  0.97293191  0.12974074    -0.80520
C390        C  0.26066992  0.94793996  0.12984351     0.94740
O391        O  0.32510924  0.52418817  0.20619786    -0.78470
O392        O  0.31927069  0.81695752  0.15561815    -0.83670
C393        C  0.36238715  0.87002327  0.22552418     0.97370
C394        C  0.33422725  0.81223416  0.11948649     1.03280
O395        O  0.37335987  0.87493473  0.18393082    -0.79310
C396        C  0.31425539  0.99376469  0.23608529     1.01580
Fe397      Fe  0.31696968  0.95644161  0.38508664     1.65780
Fe398      Fe  0.30602708  0.57621612  0.43418525     1.73250
Fe399      Fe  0.36088983  0.55747666  0.36507267     1.54420
O400        O  0.38922527  0.99545152  0.37976084    -0.83050
O401        O  0.31929552  0.65144009  0.40564046    -0.81350
O402        O  0.35827912  0.92818041  0.37492572    -0.85550
O403        O  0.30982484  0.97002448  0.31480366    -0.80410
O404        O  0.37336540  0.59345200  0.43394465    -0.82180
O405        O  0.27302606  0.56549835  0.38502584    -0.84930
C406        C  0.32413653  0.49660618  0.28622484     0.95840
C407        C  0.38378486  0.94608131  0.37562995     1.03280
O408        O  0.32920732  0.52922792  0.39585942    -1.13910
O409        O  0.29521157  0.50870029  0.47247806    -0.76340
O410        O  0.32509063  0.94420523  0.45619451    -0.79830
O411        O  0.34664826  0.52349719  0.29909594    -0.80520
C412        C  0.31424539  0.97463648  0.48608485     0.94740
O413        O  0.27342410  0.47652495  0.39060596    -0.78470
O414        O  0.33721142  0.58591223  0.48335614    -0.83670
C415        C  0.33424333  0.65615790  0.36949790     0.97360
C416        C  0.36239578  0.59835463  0.47554118     1.03280
O417        O  0.33514836  0.61726418  0.34242204    -0.79310
C418        C  0.26066811  0.52052526  0.37984717     1.01580
Fe419      Fe  0.42425436  0.76197650  0.10739592     1.65780
Fe420      Fe  0.43522307  0.64219931  0.05831294     1.73250
Fe421      Fe  0.38035311  0.66091308  0.12741967     1.54410
O422        O  0.39459819  0.69488674  0.19339873    -0.83050
O423        O  0.40404211  0.63247309  0.00913812    -0.81350
O424        O  0.43140057  0.74840712  0.17768224    -0.85550
O425        O  0.38294294  0.79021912  0.11754286    -0.80410
O426        O  0.40609980  0.60112700  0.15006332    -0.82180
O427        O  0.44602670  0.70971983  0.02001354    -0.84930
C428        C  0.35744012  0.77230928  0.11684905     0.95840
C429        C  0.41710438  0.72179805  0.20626382     1.03280
O430        O  0.41203097  0.68917824  0.09663059    -1.13910
O431        O  0.46821878  0.65295255  0.10748425    -0.76340
O432        O  0.46780137  0.74192451  0.10188994    -0.79830
O433        O  0.35200643  0.72293317  0.11274191    -0.80520
C434        C  0.48056085  0.69794002  0.11268668     0.94740
O435        O  0.41613468  0.77419781  0.03628587    -0.78470
O436        O  0.42196613  0.56696090  0.08685347    -0.83670
C437        C  0.37885626  0.62003440  0.01694984     0.97370
C438        C  0.40701122  0.56223415  0.12298674     1.03280
O439        O  0.36788307  0.62494292  0.05854349    -0.79310
C440        C  0.42698776  0.74377184  0.00640006     1.01580
Fe441      Fe  0.06697023  0.70650839  0.38517139     1.65780
Fe442      Fe  0.05600121  0.82628582  0.43425366     1.73250
Fe443      Fe  0.11087130  0.80757204  0.36514716     1.54410
O444        O  0.13921811  0.74555208  0.37982509    -0.83050
O445        O  0.06925787  0.90152424  0.40571276    -0.81350
O446        O  0.10828170  0.67826596  0.37502479    -0.85550
O447        O  0.05982405  0.72007736  0.31488500    -0.80410
O448        O  0.12334125  0.84354252  0.43402320    -0.82180
O449        O  0.02300560  0.81553186  0.38508237    -0.84930
C450        C  0.07412007  0.74668669  0.28630334     0.95840
C451        C  0.13378449  0.69617588  0.37571843     1.03280
O452        O  0.07919347  0.77930683  0.39593635    -1.13910
O453        O  0.04519776  0.75876549  0.47255357    -0.76340
O454        O  0.07508990  0.69428758  0.45628150    -0.79830
O455        O  0.09662623  0.77359814  0.29916826    -0.80520
C456        C  0.06423671  0.72471353  0.48616720     0.94740
O457        O  0.02342313  0.72655997  0.39067718    -0.78470
O458        O  0.08718210  0.83601281  0.48342845    -0.83670
C459        C  0.08421294  0.90625095  0.36957969     0.97360
C460        C  0.11236799  0.84845133  0.47561678     1.03280
O461        O  0.08512454  0.86735797  0.34250327    -0.79310
C462        C  0.01066355  0.77054433  0.37988033     1.01580
Fe463      Fe  0.17425502  0.01204344  0.10748024     1.65780
Fe464      Fe  0.18519721  0.89226890  0.05838136     1.73250
Fe465      Fe  0.13033457  0.91100891  0.12749398     1.54420
O466        O  0.14457616  0.94498838  0.19347074    -0.83050
O467        O  0.15401284  0.88257342  0.00921044    -0.81350
O468        O  0.18139988  0.99846043  0.17776320    -0.85550
O469        O  0.13294562  0.54030500  0.11764144    -0.80410
O470        O  0.15607589  0.85122128  0.15014468    -0.82180
O471        O  0.19601296  0.95978468  0.02008877    -0.84930
C472        C  0.10743984  0.52240423  0.11693707     0.95840
C473        C  0.16708797  0.97187910  0.20634197     1.03280
O474        O  0.16201716  0.93925731  0.09670730    -1.13910
O475        O  0.21819832  0.90298609  0.10754077    -0.76340
O476        O  0.21780048  0.99195952  0.10196077    -0.79830
O477        O  0.10199934  0.97303413  0.11280571    -0.80520
C478        C  0.23055634  0.94795911  0.11271963     0.94740
O479        O  0.16613406  0.52427997  0.03637239    -0.78470
O480        O  0.17192843  0.81704516  0.08692609    -0.83670
C481        C  0.12882848  0.87013108  0.01702542     0.97360
C482        C  0.15698074  0.81232756  0.12306882     1.03280
O483        O  0.11785891  0.87503362  0.05862200    -0.79310
C484        C  0.17697916  0.99384853  0.00648204     1.01580
Fe485      Fe  0.06695448  0.76205007  0.13516888     1.65780
Fe486      Fe  0.05601055  0.64227586  0.18427168     1.73250
Fe487      Fe  0.11087318  0.66101007  0.11516130     1.54420
O488        O  0.09663091  0.69498221  0.04918000    -0.83050
O489        O  0.08719243  0.63258652  0.23344894    -0.81350
O490        O  0.05981347  0.74846997  0.06488450    -0.85550
O491        O  0.10826455  0.79031024  0.12501955    -0.80410
O492        O  0.08513286  0.60121958  0.09251414    -0.82180
O493        O  0.04519147  0.70979552  0.22255673    -0.84930
C494        C  0.13376958  0.77240641  0.12572155     0.95840
C495        C  0.07412109  0.72187866  0.03630718     1.03280
O496        O  0.07919182  0.68926319  0.14594636    -1.13910
O497        O  0.02301556  0.65298603  0.13509732    -0.76340
O498        O  0.02340949  0.74196007  0.14067063    -0.79830
O499        O  0.13920883  0.72303524  0.12984582    -0.80520
C500        C  0.01066162  0.69795935  0.12988439     0.94740
O501        O  0.07507055  0.77429026  0.20627803    -0.78470
O502        O  0.06928371  0.56704911  0.15573702    -0.83670
C503        C  0.11237690  0.62014246  0.22563481     0.97360
C504        C  0.08422950  0.56232784  0.11959241     1.03280
O505        O  0.12334686  0.62504173  0.18403785    -0.79310
C506        C  0.06422633  0.74385638  0.23616680     1.01580
Fe507      Fe  0.17423943  0.95651459  0.35747774     1.65780
Fe508      Fe  0.18520650  0.57629212  0.30839901     1.73250
Fe509      Fe  0.13033655  0.55757315  0.37750804     1.54330
O510        O  0.10199017  0.99555334  0.36282642    -0.83050
O511        O  0.17195410  0.65152763  0.33694979    -0.81350
O512        O  0.13292860  0.92827103  0.36763603    -0.85550
O513        O  0.18138935  0.97008642  0.42776273    -0.80410
O514        O  0.11786460  0.59355071  0.30863663    -0.82180
O515        O  0.21820821  0.56553154  0.35755535    -0.84930
C516        C  0.16708898  0.49668582  0.45634579     0.95840
C517        C  0.10742504  0.94617814  0.36694005     1.03280
O518        O  0.16201558  0.52931230  0.34671719    -1.13910
O519        O  0.19600680  0.50877550  0.27009188    -0.76340
O520        O  0.16611497  0.94429723  0.28636892    -0.79830
O521        O  0.14458087  0.52359182  0.44348240    -0.80520
C522        C  0.17696893  0.97472070  0.25648161     0.94740
O523        O  0.21778702  0.47656020  0.35195448    -0.78470
O524        O  0.15402306  0.58602495  0.25923063    -0.83670
C525        C  0.15699738  0.65625094  0.37308124     0.97370
C526        C  0.12883738  0.59846247  0.26704336     1.03280
O527        O  0.15608437  0.61735603  0.40015532    -0.79310
C528        C  0.23055447  0.52054440  0.36272364     1.01580
Fe529      Fe  0.42426961  0.70643497  0.85739838     1.65780
Fe530      Fe  0.43521394  0.82620915  0.80829586     1.73250
Fe531      Fe  0.38035120  0.80747549  0.87740620     1.54420
O532        O  0.35201535  0.74545040  0.86272178    -0.83050
O533        O  0.42194113  0.90143613  0.83683057    -0.81350
O534        O  0.38295949  0.67817517  0.86754744    -0.85550
O535        O  0.43141060  0.72001493  0.92768279    -0.80410
O536        O  0.36787762  0.84344389  0.80852965    -0.82180
O537        O  0.46820884  0.81549841  0.85747021    -0.84930
C538        C  0.41710319  0.74660661  0.95626016     0.95840
C539        C  0.35745450  0.69607913  0.86684557     1.03280
O540        O  0.41203248  0.77922203  0.84662107    -1.13910
O541        O  0.44603279  0.75868944  0.77001059    -0.76340
O542        O  0.41615354  0.69419493  0.78628922    -0.79830
O543        O  0.39459346  0.77350335  0.94338747    -0.80520
C544        C  0.42699792  0.72462862  0.75640047     0.94740
O545        O  0.46781472  0.72652439  0.85189678    -0.78470
O546        O  0.40403209  0.83589911  0.75911863    -0.83670
C547        C  0.40699522  0.90615761  0.87297501     0.97360
C548        C  0.37884762  0.84834324  0.76693273     1.03280
O549        O  0.40609167  0.86726588  0.90005329    -0.79310
C550        C  0.48056271  0.77052501  0.86268295     1.01580
Fe551      Fe  0.31698476  0.01197031  0.63508909     1.65780
Fe552      Fe  0.30601801  0.89219303  0.68416854     1.73250
Fe553      Fe  0.36088782  0.91091199  0.61505929     1.54420
O554        O  0.34664349  0.94489307  0.54908477    -0.83050
O555        O  0.33720151  0.88246097  0.73333696    -0.81350
O556        O  0.30983481  0.99839809  0.56480418    -0.85550
O557        O  0.35829555  0.54021405  0.62493048    -0.80410
O558        O  0.33514007  0.85112895  0.59241225    -0.82180
O559        O  0.29521752  0.95970983  0.72247516    -0.84930
C560        C  0.38379913  0.52230702  0.62562663     0.95840
C561        C  0.32413536  0.97179894  0.53622119     1.03280
O562        O  0.32920877  0.93917279  0.64585003    -1.13910
O563        O  0.27301620  0.90295288  0.63501219    -0.76340
O564        O  0.27343727  0.99192429  0.64061255    -0.79830
O565        O  0.38923407  0.97293191  0.62974074    -0.80520
C566        C  0.26066992  0.94793996  0.62984351     0.94740
O567        O  0.32510924  0.52418817  0.70619786    -0.78470
O568        O  0.31927069  0.81695752  0.65561815    -0.83670
C569        C  0.36238715  0.87002327  0.72552418     0.97370
C570        C  0.33422725  0.81223417  0.61948649     1.03280
O571        O  0.37335987  0.87493473  0.68393082    -0.79310
C572        C  0.31425539  0.99376470  0.73608529     1.01580
Fe573      Fe  0.31696968  0.95644161  0.88508664     1.65780
Fe574      Fe  0.30602708  0.57621612  0.93418525     1.73250
Fe575      Fe  0.36088983  0.55747665  0.86507267     1.54420
O576        O  0.38922527  0.99545151  0.87976084    -0.83050
O577        O  0.31929552  0.65144009  0.90564046    -0.81350
O578        O  0.35827912  0.92818041  0.87492572    -0.85550
O579        O  0.30982484  0.97002448  0.81480366    -0.80410
O580        O  0.37336540  0.59345200  0.93394465    -0.82180
O581        O  0.27302606  0.56549835  0.88502584    -0.84930
C582        C  0.32413653  0.49660618  0.78622484     0.95840
C583        C  0.38378486  0.94608131  0.87562995     1.03280
O584        O  0.32920732  0.52922792  0.89585943    -1.13910
O585        O  0.29521157  0.50870028  0.97247806    -0.76340
O586        O  0.32509063  0.94420523  0.95619451    -0.79830
O587        O  0.34664826  0.52349719  0.79909594    -0.80520
C588        C  0.31424538  0.97463647  0.98608485     0.94740
O589        O  0.27342410  0.47652495  0.89060596    -0.78470
O590        O  0.33721142  0.58591222  0.98335615    -0.83670
C591        C  0.33424332  0.65615789  0.86949790     0.97360
C592        C  0.36239577  0.59835463  0.97554118     1.03280
O593        O  0.33514836  0.61726418  0.84242204    -0.79310
C594        C  0.26066811  0.52052526  0.87984717     1.01580
Fe595      Fe  0.42425436  0.76197650  0.60739592     1.65780
Fe596      Fe  0.43522307  0.64219932  0.55831295     1.73250
Fe597      Fe  0.38035311  0.66091309  0.62741967     1.54410
O598        O  0.39459819  0.69488675  0.69339873    -0.83050
O599        O  0.40404212  0.63247310  0.50913812    -0.81350
O600        O  0.43140057  0.74840713  0.67768224    -0.85550
O601        O  0.38294294  0.79021912  0.61754286    -0.80410
O602        O  0.40609980  0.60112701  0.65006332    -0.82180
O603        O  0.44602670  0.70971983  0.52001354    -0.84930
C604        C  0.35744012  0.77230928  0.61684905     0.95840
C605        C  0.41710437  0.72179806  0.70626382     1.03280
O606        O  0.41203097  0.68917824  0.59663059    -1.13910
O607        O  0.46821878  0.65295255  0.60748425    -0.76340
O608        O  0.46780137  0.74192451  0.60188994    -0.79830
O609        O  0.35200643  0.72293317  0.61274191    -0.80520
C610        C  0.48056085  0.69794003  0.61268668     0.94740
O611        O  0.41613468  0.77419781  0.53628587    -0.78470
O612        O  0.42196613  0.56696091  0.58685347    -0.83670
C613        C  0.37885626  0.62003440  0.51694984     0.97370
C614        C  0.40701122  0.56223415  0.62298674     1.03280
O615        O  0.36788307  0.62494292  0.55854349    -0.79310
C616        C  0.42698776  0.74377185  0.50640006     1.01580
Fe617      Fe  0.06697023  0.70650838  0.88517139     1.65780
Fe618      Fe  0.05600121  0.82628581  0.93425366     1.73250
Fe619      Fe  0.11087130  0.80757204  0.86514716     1.54410
O620        O  0.13921811  0.74555207  0.87982509    -0.83050
O621        O  0.06925787  0.90152424  0.90571276    -0.81350
O622        O  0.10828170  0.67826596  0.87502479    -0.85550
O623        O  0.05982405  0.72007736  0.81488500    -0.80410
O624        O  0.12334125  0.84354252  0.93402321    -0.82180
O625        O  0.02300559  0.81553186  0.88508237    -0.84930
C626        C  0.07412007  0.74668669  0.78630334     0.95840
C627        C  0.13378449  0.69617588  0.87571844     1.03280
O628        O  0.07919347  0.77930682  0.89593635    -1.13910
O629        O  0.04519776  0.75876549  0.97255357    -0.76340
O630        O  0.07508989  0.69428757  0.95628150    -0.79830
O631        O  0.09662623  0.77359814  0.79916826    -0.80520
C632        C  0.06423671  0.72471353  0.98616720     0.94740
O633        O  0.02342312  0.72655996  0.89067718    -0.78470
O634        O  0.08718210  0.83601280  0.98342845    -0.83670
C635        C  0.08421294  0.90625094  0.86957969     0.97360
C636        C  0.11236799  0.84845133  0.97561678     1.03280
O637        O  0.08512454  0.86735797  0.84250327    -0.79310
C638        C  0.01066355  0.77054432  0.87988033     1.01580
Fe639      Fe  0.17425502  0.01204344  0.60748024     1.65780
Fe640      Fe  0.18519722  0.89226890  0.55838136     1.73250
Fe641      Fe  0.13033458  0.91100891  0.62749398     1.54420
O642        O  0.14457616  0.94498838  0.69347074    -0.83050
O643        O  0.15401284  0.88257342  0.50921043    -0.81350
O644        O  0.18139988  0.99846043  0.67776320    -0.85550
O645        O  0.13294562  0.54030501  0.61764144    -0.80410
O646        O  0.15607589  0.85122129  0.65014468    -0.82180
O647        O  0.19601296  0.95978468  0.52008877    -0.84930
C648        C  0.10743984  0.52240423  0.61693707     0.95840
C649        C  0.16708797  0.97187910  0.70634197     1.03280
O650        O  0.16201716  0.93925732  0.59670730    -1.13910
O651        O  0.21819832  0.90298610  0.60754077    -0.76340
O652        O  0.21780048  0.99195952  0.60196077    -0.79830
O653        O  0.10199934  0.97303414  0.61280570    -0.80520
C654        C  0.23055634  0.94795911  0.61271963     0.94740
O655        O  0.16613406  0.52427997  0.53637239    -0.78470
O656        O  0.17192843  0.81704516  0.58692609    -0.83670
C657        C  0.12882849  0.87013108  0.51702542     0.97360
C658        C  0.15698074  0.81232756  0.62306882     1.03280
O659        O  0.11785891  0.87503363  0.55862200    -0.79310
C660        C  0.17697916  0.99384854  0.50648204     1.01580
Fe661      Fe  0.06695448  0.76205007  0.63516889     1.65780
Fe662      Fe  0.05601055  0.64227586  0.68427167     1.73250
Fe663      Fe  0.11087318  0.66101007  0.61516130     1.54420
O664        O  0.09663091  0.69498221  0.54918000    -0.83050
O665        O  0.08719243  0.63258652  0.73344894    -0.81350
O666        O  0.05981347  0.74846997  0.56488450    -0.85550
O667        O  0.10826455  0.79031025  0.62501956    -0.80410
O668        O  0.08513287  0.60121959  0.59251414    -0.82180
O669        O  0.04519147  0.70979551  0.72255673    -0.84930
C670        C  0.13376958  0.77240641  0.62572155     0.95840
C671        C  0.07412110  0.72187867  0.53630718     1.03280
O672        O  0.07919182  0.68926319  0.64594636    -1.13910
O673        O  0.02301556  0.65298603  0.63509732    -0.76340
O674        O  0.02340949  0.74196007  0.64067063    -0.79830
O675        O  0.13920883  0.72303525  0.62984582    -0.80520
C676        C  0.01066163  0.69795935  0.62988439     0.94740
O677        O  0.07507055  0.77429026  0.70627803    -0.78470
O678        O  0.06928371  0.56704911  0.65573702    -0.83670
C679        C  0.11237690  0.62014246  0.72563481     0.97360
C680        C  0.08422950  0.56232785  0.61959240     1.03280
O681        O  0.12334686  0.62504173  0.68403785    -0.79310
C682        C  0.06422632  0.74385638  0.73616680     1.01580
Fe683      Fe  0.17423943  0.95651459  0.85747774     1.65780
Fe684      Fe  0.18520650  0.57629212  0.80839901     1.73250
Fe685      Fe  0.13033655  0.55757314  0.87750804     1.54330
O686        O  0.10199016  0.99555334  0.86282642    -0.83050
O687        O  0.17195409  0.65152763  0.83694979    -0.81350
O688        O  0.13292859  0.92827103  0.86763602    -0.85550
O689        O  0.18138935  0.97008641  0.92776273    -0.80410
O690        O  0.11786459  0.59355071  0.80863663    -0.82180
O691        O  0.21820821  0.56553153  0.85755535    -0.84930
C692        C  0.16708898  0.49668581  0.95634579     0.95840
C693        C  0.10742504  0.94617813  0.86694005     1.03280
O694        O  0.16201557  0.52931229  0.84671719    -1.13910
O695        O  0.19600680  0.50877550  0.77009188    -0.76340
O696        O  0.16611497  0.94429723  0.78636892    -0.79830
O697        O  0.14458087  0.52359181  0.94348240    -0.80520
C698        C  0.17696893  0.97472070  0.75648161     0.94740
O699        O  0.21778702  0.47656019  0.85195448    -0.78470
O700        O  0.15402306  0.58602495  0.75923063    -0.83670
C701        C  0.15699737  0.65625094  0.87308124     0.97370
C702        C  0.12883738  0.59846247  0.76704336     1.03280
O703        O  0.15608437  0.61735602  0.90015532    -0.79310
C704        C  0.23055446  0.52054440  0.86272364     1.01580
Fe705      Fe  0.92426962  0.20643497  0.35739838     1.65780
Fe706      Fe  0.93521394  0.32620915  0.30829585     1.73250
Fe707      Fe  0.88035120  0.30747549  0.37740620     1.54420
O708        O  0.85201535  0.24545041  0.36272178    -0.83050
O709        O  0.92194113  0.40143613  0.33683056    -0.81350
O710        O  0.88295949  0.17817517  0.36754744    -0.85550
O711        O  0.93141060  0.22001493  0.42768279    -0.80410
O712        O  0.86787762  0.34344389  0.30852965    -0.82180
O713        O  0.96820885  0.31549841  0.35747020    -0.84930
C714        C  0.91710319  0.24660661  0.45626016     0.95840
C715        C  0.85745451  0.19607913  0.36684557     1.03280
O716        O  0.91203249  0.27922203  0.34662106    -1.13910
O717        O  0.94603279  0.25868944  0.27001059    -0.76340
O718        O  0.91615354  0.19419493  0.28628922    -0.79830
O719        O  0.89459346  0.27350335  0.44338747    -0.80520
C720        C  0.92699792  0.22462862  0.25640047     0.94740
O721        O  0.96781472  0.22652439  0.35189678    -0.78470
O722        O  0.90403209  0.33589911  0.25911862    -0.83670
C723        C  0.90699522  0.40615761  0.37297501     0.97360
C724        C  0.87884763  0.34834325  0.26693273     1.03280
O725        O  0.90609167  0.36726588  0.40005328    -0.79310
C726        C  0.98056271  0.27052501  0.36268295     1.01580
Fe727      Fe  0.81698476  0.51197030  0.13508909     1.65780
Fe728      Fe  0.80601801  0.39219302  0.18416854     1.73250
Fe729      Fe  0.86088782  0.41091198  0.11505928     1.54420
O730        O  0.84664349  0.44489307  0.04908476    -0.83050
O731        O  0.83720151  0.38246097  0.23333696    -0.81350
O732        O  0.80983481  0.49839808  0.06480418    -0.85550
O733        O  0.85829555  0.04021405  0.12493048    -0.80410
O734        O  0.83514007  0.35112895  0.09241225    -0.82180
O735        O  0.79521752  0.45970983  0.22247516    -0.84930
C736        C  0.88379913  0.02230702  0.12562662     0.95840
C737        C  0.82413536  0.47179894  0.03622119     1.03280
O738        O  0.82920877  0.43917278  0.14585003    -1.13910
O739        O  0.77301620  0.40295288  0.13501219    -0.76340
O740        O  0.77343727  0.49192428  0.14061255    -0.79830
O741        O  0.88923407  0.47293191  0.12974073    -0.80520
C742        C  0.76066992  0.44793996  0.12984351     0.94740
O743        O  0.82510924  0.02418817  0.20619786    -0.78470
O744        O  0.81927069  0.31695752  0.15561815    -0.83670
C745        C  0.86238715  0.37002327  0.22552418     0.97370
C746        C  0.83422725  0.31223416  0.11948649     1.03280
O747        O  0.87335987  0.37493473  0.18393082    -0.79310
C748        C  0.81425539  0.49376469  0.23608529     1.01580
Fe749      Fe  0.81696968  0.45644161  0.38508664     1.65780
Fe750      Fe  0.80602708  0.07621613  0.43418525     1.73250
Fe751      Fe  0.86088983  0.05747666  0.36507267     1.54420
O752        O  0.88922527  0.49545152  0.37976084    -0.83050
O753        O  0.81929552  0.15144009  0.40564046    -0.81350
O754        O  0.85827912  0.42818041  0.37492572    -0.85550
O755        O  0.80982484  0.47002448  0.31480366    -0.80410
O756        O  0.87336540  0.09345200  0.43394465    -0.82180
O757        O  0.77302606  0.06549835  0.38502584    -0.84930
C758        C  0.82413653  0.99660618  0.28622484     0.95840
C759        C  0.88378486  0.44608131  0.37562995     1.03280
O760        O  0.82920732  0.02922792  0.39585942    -1.13910
O761        O  0.79521157  0.00870029  0.47247806    -0.76340
O762        O  0.82509063  0.44420523  0.45619451    -0.79830
O763        O  0.84664826  0.02349719  0.29909594    -0.80520
C764        C  0.81424539  0.47463648  0.48608485     0.94740
O765        O  0.77342410  0.97652495  0.39060596    -0.78470
O766        O  0.83721142  0.08591223  0.48335614    -0.83670
C767        C  0.83424333  0.15615790  0.36949790     0.97360
C768        C  0.86239578  0.09835463  0.47554118     1.03280
O769        O  0.83514836  0.11726418  0.34242204    -0.79310
C770        C  0.76066811  0.02052526  0.37984717     1.01580
Fe771      Fe  0.92425436  0.26197650  0.10739592     1.65780
Fe772      Fe  0.93522307  0.14219932  0.05831294     1.73250
Fe773      Fe  0.88035311  0.16091308  0.12741967     1.54410
O774        O  0.89459819  0.19488674  0.19339873    -0.83050
O775        O  0.90404211  0.13247309  0.00913812    -0.81350
O776        O  0.93140057  0.24840712  0.17768224    -0.85550
O777        O  0.88294294  0.29021912  0.11754286    -0.80410
O778        O  0.90609980  0.10112700  0.15006332    -0.82180
O779        O  0.94602670  0.20971983  0.02001354    -0.84930
C780        C  0.85744012  0.27230928  0.11684905     0.95840
C781        C  0.91710438  0.22179805  0.20626382     1.03280
O782        O  0.91203097  0.18917824  0.09663059    -1.13910
O783        O  0.96821878  0.15295255  0.10748425    -0.76340
O784        O  0.96780137  0.24192451  0.10188994    -0.79830
O785        O  0.85200643  0.22293317  0.11274191    -0.80520
C786        C  0.98056085  0.19794002  0.11268668     0.94740
O787        O  0.91613467  0.27419781  0.03628587    -0.78470
O788        O  0.92196613  0.06696090  0.08685347    -0.83670
C789        C  0.87885626  0.12003440  0.01694984     0.97370
C790        C  0.90701122  0.06223415  0.12298674     1.03280
O791        O  0.86788307  0.12494292  0.05854349    -0.79310
C792        C  0.92698776  0.24377184  0.00640006     1.01580
Fe793      Fe  0.56697023  0.20650839  0.38517139     1.65780
Fe794      Fe  0.55600121  0.32628582  0.43425366     1.73250
Fe795      Fe  0.61087130  0.30757204  0.36514716     1.54410
O796        O  0.63921811  0.24555208  0.37982509    -0.83050
O797        O  0.56925787  0.40152424  0.40571276    -0.81350
O798        O  0.60828170  0.17826596  0.37502479    -0.85550
O799        O  0.55982405  0.22007736  0.31488500    -0.80410
O800        O  0.62334125  0.34354252  0.43402320    -0.82180
O801        O  0.52300560  0.31553186  0.38508237    -0.84930
C802        C  0.57412007  0.24668669  0.28630334     0.95840
C803        C  0.63378449  0.19617588  0.37571843     1.03280
O804        O  0.57919347  0.27930683  0.39593635    -1.13910
O805        O  0.54519776  0.25876549  0.47255357    -0.76340
O806        O  0.57508990  0.19428758  0.45628150    -0.79830
O807        O  0.59662623  0.27359814  0.29916826    -0.80520
C808        C  0.56423671  0.22471353  0.48616719     0.94740
O809        O  0.52342313  0.22655997  0.39067718    -0.78470
O810        O  0.58718210  0.33601281  0.48342844    -0.83670
C811        C  0.58421294  0.40625095  0.36957968     0.97360
C812        C  0.61236799  0.34845133  0.47561677     1.03280
O813        O  0.58512454  0.36735797  0.34250327    -0.79310
C814        C  0.51066355  0.27054433  0.37988033     1.01580
Fe815      Fe  0.67425502  0.51204344  0.10748024     1.65780
Fe816      Fe  0.68519722  0.39226890  0.05838136     1.73250
Fe817      Fe  0.63033458  0.41100891  0.12749398     1.54420
O818        O  0.64457616  0.44498838  0.19347074    -0.83050
O819        O  0.65401284  0.38257342  0.00921043    -0.81350
O820        O  0.68139988  0.49846043  0.17776319    -0.85550
O821        O  0.63294562  0.04030500  0.11764144    -0.80410
O822        O  0.65607589  0.35122128  0.15014467    -0.82180
O823        O  0.69601296  0.45978468  0.02008877    -0.84930
C824        C  0.60743984  0.02240423  0.11693707     0.95840
C825        C  0.66708797  0.47187910  0.20634197     1.03280
O826        O  0.66201716  0.43925731  0.09670730    -1.13910
O827        O  0.71819832  0.40298609  0.10754077    -0.76340
O828        O  0.71780048  0.49195952  0.10196077    -0.79830
O829        O  0.60199934  0.47303413  0.11280571    -0.80520
C830        C  0.73055634  0.44795911  0.11271963     0.94740
O831        O  0.66613406  0.02427997  0.03637239    -0.78470
O832        O  0.67192843  0.31704516  0.08692609    -0.83670
C833        C  0.62882848  0.37013108  0.01702542     0.97360
C834        C  0.65698074  0.31232756  0.12306882     1.03280
O835        O  0.61785891  0.37503362  0.05862200    -0.79310
C836        C  0.67697916  0.49384853  0.00648204     1.01580
Fe837      Fe  0.56695448  0.26205007  0.13516888     1.65780
Fe838      Fe  0.55601055  0.14227586  0.18427167     1.73250
Fe839      Fe  0.61087318  0.16101007  0.11516130     1.54420
O840        O  0.59663091  0.19498221  0.04918000    -0.83050
O841        O  0.58719243  0.13258651  0.23344894    -0.81350
O842        O  0.55981347  0.24846997  0.06488450    -0.85550
O843        O  0.60826455  0.29031024  0.12501955    -0.80410
O844        O  0.58513287  0.10121958  0.09251414    -0.82180
O845        O  0.54519147  0.20979551  0.22255673    -0.84930
C846        C  0.63376958  0.27240641  0.12572155     0.95840
C847        C  0.57412109  0.22187866  0.03630718     1.03280
O848        O  0.57919182  0.18926319  0.14594636    -1.13910
O849        O  0.52301556  0.15298602  0.13509732    -0.76340
O850        O  0.52340949  0.24196007  0.14067063    -0.79830
O851        O  0.63920883  0.22303524  0.12984582    -0.80520
C852        C  0.51066162  0.19795935  0.12988439     0.94740
O853        O  0.57507055  0.27429026  0.20627803    -0.78470
O854        O  0.56928371  0.06704911  0.15573702    -0.83670
C855        C  0.61237690  0.12014246  0.22563481     0.97360
C856        C  0.58422950  0.06232784  0.11959240     1.03280
O857        O  0.62334686  0.12504173  0.18403785    -0.79310
C858        C  0.56422633  0.24385638  0.23616680     1.01580
Fe859      Fe  0.67423943  0.45651459  0.35747774     1.65780
Fe860      Fe  0.68520650  0.07629212  0.30839901     1.73250
Fe861      Fe  0.63033655  0.05757315  0.37750804     1.54330
O862        O  0.60199017  0.49555334  0.36282642    -0.83050
O863        O  0.67195410  0.15152763  0.33694979    -0.81350
O864        O  0.63292860  0.42827103  0.36763602    -0.85550
O865        O  0.68138935  0.47008641  0.42776272    -0.80410
O866        O  0.61786460  0.09355071  0.30863663    -0.82180
O867        O  0.71820821  0.06553154  0.35755535    -0.84930
C868        C  0.66708898  0.99668582  0.45634579     0.95840
C869        C  0.60742504  0.44617814  0.36694005     1.03280
O870        O  0.66201558  0.02931229  0.34671718    -1.13910
O871        O  0.69600680  0.00877550  0.27009188    -0.76340
O872        O  0.66611497  0.44429723  0.28636892    -0.79830
O873        O  0.64458087  0.02359182  0.44348240    -0.80520
C874        C  0.67696893  0.47472070  0.25648161     0.94740
O875        O  0.71778702  0.97656020  0.35195448    -0.78470
O876        O  0.65402306  0.08602495  0.25923063    -0.83670
C877        C  0.65699738  0.15625094  0.37308124     0.97370
C878        C  0.62883738  0.09846247  0.26704336     1.03280
O879        O  0.65608437  0.11735603  0.40015532    -0.79310
C880        C  0.73055447  0.02054440  0.36272364     1.01580
Fe881      Fe  0.92426961  0.20643497  0.85739838     1.65780
Fe882      Fe  0.93521394  0.32620915  0.80829586     1.73250
Fe883      Fe  0.88035120  0.30747549  0.87740620     1.54420
O884        O  0.85201535  0.24545041  0.86272178    -0.83050
O885        O  0.92194113  0.40143613  0.83683057    -0.81350
O886        O  0.88295949  0.17817517  0.86754743    -0.85550
O887        O  0.93141060  0.22001493  0.92768279    -0.80410
O888        O  0.86787762  0.34344389  0.80852965    -0.82180
O889        O  0.96820884  0.31549841  0.85747021    -0.84930
C890        C  0.91710319  0.24660661  0.95626016     0.95840
C891        C  0.85745450  0.19607913  0.86684557     1.03280
O892        O  0.91203248  0.27922203  0.84662106    -1.13910
O893        O  0.94603279  0.25868944  0.77001059    -0.76340
O894        O  0.91615354  0.19419493  0.78628922    -0.79830
O895        O  0.89459346  0.27350335  0.94338747    -0.80520
C896        C  0.92699792  0.22462862  0.75640047     0.94740
O897        O  0.96781472  0.22652439  0.85189678    -0.78470
O898        O  0.90403209  0.33589911  0.75911863    -0.83670
C899        C  0.90699522  0.40615761  0.87297501     0.97360
C900        C  0.87884762  0.34834325  0.76693273     1.03280
O901        O  0.90609167  0.36726588  0.90005329    -0.79310
C902        C  0.98056271  0.27052501  0.86268295     1.01580
Fe903      Fe  0.81698476  0.51197031  0.63508909     1.65780
Fe904      Fe  0.80601801  0.39219303  0.68416854     1.73250
Fe905      Fe  0.86088782  0.41091199  0.61505929     1.54420
O906        O  0.84664349  0.44489307  0.54908477    -0.83050
O907        O  0.83720151  0.38246097  0.73333696    -0.81350
O908        O  0.80983481  0.49839809  0.56480418    -0.85550
O909        O  0.85829555  0.04021405  0.62493048    -0.80410
O910        O  0.83514007  0.35112895  0.59241224    -0.82180
O911        O  0.79521752  0.45970984  0.72247516    -0.84930
C912        C  0.88379913  0.02230703  0.62562663     0.95840
C913        C  0.82413536  0.47179894  0.53622119     1.03280
O914        O  0.82920877  0.43917279  0.64585003    -1.13910
O915        O  0.77301620  0.40295288  0.63501219    -0.76340
O916        O  0.77343727  0.49192429  0.64061255    -0.79830
O917        O  0.88923407  0.47293191  0.62974074    -0.80520
C918        C  0.76066992  0.44793996  0.62984351     0.94740
O919        O  0.82510924  0.02418817  0.70619786    -0.78470
O920        O  0.81927069  0.31695753  0.65561814    -0.83670
C921        C  0.86238715  0.37002327  0.72552418     0.97370
C922        C  0.83422725  0.31223417  0.61948649     1.03280
O923        O  0.87335987  0.37493473  0.68393082    -0.79310
C924        C  0.81425539  0.49376470  0.73608529     1.01580
Fe925      Fe  0.81696968  0.45644161  0.88508664     1.65780
Fe926      Fe  0.80602708  0.07621612  0.93418525     1.73250
Fe927      Fe  0.86088983  0.05747665  0.86507267     1.54420
O928        O  0.88922527  0.49545151  0.87976084    -0.83050
O929        O  0.81929551  0.15144009  0.90564046    -0.81350
O930        O  0.85827912  0.42818041  0.87492572    -0.85550
O931        O  0.80982484  0.47002448  0.81480366    -0.80410
O932        O  0.87336540  0.09345200  0.93394465    -0.82180
O933        O  0.77302606  0.06549835  0.88502584    -0.84930
C934        C  0.82413653  0.99660618  0.78622484     0.95840
C935        C  0.88378486  0.44608131  0.87562995     1.03280
O936        O  0.82920732  0.02922792  0.89585942    -1.13910
O937        O  0.79521157  0.00870028  0.97247806    -0.76340
O938        O  0.82509063  0.44420523  0.95619451    -0.79830
O939        O  0.84664826  0.02349719  0.79909594    -0.80520
C940        C  0.81424538  0.47463647  0.98608485     0.94740
O941        O  0.77342410  0.97652495  0.89060596    -0.78470
O942        O  0.83721142  0.08591222  0.98335615    -0.83670
C943        C  0.83424332  0.15615789  0.86949790     0.97360
C944        C  0.86239577  0.09835463  0.97554118     1.03280
O945        O  0.83514836  0.11726418  0.84242204    -0.79310
C946        C  0.76066811  0.02052526  0.87984717     1.01580
Fe947      Fe  0.92425436  0.26197650  0.60739592     1.65780
Fe948      Fe  0.93522307  0.14219932  0.55831294     1.73250
Fe949      Fe  0.88035311  0.16091309  0.62741966     1.54410
O950        O  0.89459819  0.19488675  0.69339873    -0.83050
O951        O  0.90404212  0.13247310  0.50913812    -0.81350
O952        O  0.93140057  0.24840713  0.67768224    -0.85550
O953        O  0.88294294  0.29021912  0.61754286    -0.80410
O954        O  0.90609980  0.10112701  0.65006332    -0.82180
O955        O  0.94602670  0.20971983  0.52001354    -0.84930
C956        C  0.85744012  0.27230928  0.61684905     0.95840
C957        C  0.91710437  0.22179806  0.70626382     1.03280
O958        O  0.91203097  0.18917825  0.59663058    -1.13910
O959        O  0.96821878  0.15295256  0.60748425    -0.76340
O960        O  0.96780137  0.24192451  0.60188994    -0.79830
O961        O  0.85200643  0.22293317  0.61274190    -0.80520
C962        C  0.98056085  0.19794003  0.61268668     0.94740
O963        O  0.91613468  0.27419781  0.53628587    -0.78470
O964        O  0.92196613  0.06696091  0.58685347    -0.83670
C965        C  0.87885626  0.12003440  0.51694983     0.97370
C966        C  0.90701122  0.06223416  0.62298674     1.03280
O967        O  0.86788307  0.12494292  0.55854349    -0.79310
C968        C  0.92698776  0.24377185  0.50640006     1.01580
Fe969      Fe  0.56697023  0.20650839  0.88517139     1.65780
Fe970      Fe  0.55600121  0.32628582  0.93425366     1.73250
Fe971      Fe  0.61087130  0.30757204  0.86514716     1.54410
O972        O  0.63921811  0.24555207  0.87982509    -0.83050
O973        O  0.56925787  0.40152424  0.90571276    -0.81350
O974        O  0.60828170  0.17826596  0.87502478    -0.85550
O975        O  0.55982405  0.22007736  0.81488500    -0.80410
O976        O  0.62334125  0.34354252  0.93402320    -0.82180
O977        O  0.52300559  0.31553186  0.88508237    -0.84930
C978        C  0.57412007  0.24668669  0.78630334     0.95840
C979        C  0.63378449  0.19617588  0.87571843     1.03280
O980        O  0.57919347  0.27930682  0.89593635    -1.13910
O981        O  0.54519776  0.25876549  0.97255357    -0.76340
O982        O  0.57508989  0.19428757  0.95628150    -0.79830
O983        O  0.59662623  0.27359814  0.79916826    -0.80520
C984        C  0.56423671  0.22471353  0.98616719     0.94740
O985        O  0.52342312  0.22655996  0.89067718    -0.78470
O986        O  0.58718210  0.33601280  0.98342845    -0.83670
C987        C  0.58421294  0.40625094  0.86957968     0.97360
C988        C  0.61236799  0.34845133  0.97561678     1.03280
O989        O  0.58512454  0.36735797  0.84250327    -0.79310
C990        C  0.51066355  0.27054432  0.87988033     1.01580
Fe991      Fe  0.67425502  0.51204344  0.60748024     1.65780
Fe992      Fe  0.68519722  0.39226890  0.55838136     1.73250
Fe993      Fe  0.63033457  0.41100891  0.62749398     1.54420
O994        O  0.64457616  0.44498838  0.69347074    -0.83050
O995        O  0.65401284  0.38257342  0.50921043    -0.81350
O996        O  0.68139988  0.49846043  0.67776319    -0.85550
O997        O  0.63294562  0.04030501  0.61764144    -0.80410
O998        O  0.65607589  0.35122129  0.65014468    -0.82180
O999        O  0.69601296  0.45978468  0.52008877    -0.84930
C1000       C  0.60743984  0.02240423  0.61693707     0.95840
C1001       C  0.66708797  0.47187910  0.70634197     1.03280
O1002       O  0.66201716  0.43925732  0.59670730    -1.13910
O1003       O  0.71819832  0.40298610  0.60754077    -0.76340
O1004       O  0.71780048  0.49195952  0.60196077    -0.79830
O1005       O  0.60199934  0.47303414  0.61280570    -0.80520
C1006       C  0.73055634  0.44795911  0.61271963     0.94740
O1007       O  0.66613406  0.02427997  0.53637239    -0.78470
O1008       O  0.67192843  0.31704516  0.58692609    -0.83670
C1009       C  0.62882849  0.37013108  0.51702542     0.97360
C1010       C  0.65698074  0.31232756  0.62306882     1.03280
O1011       O  0.61785891  0.37503362  0.55862200    -0.79310
C1012       C  0.67697916  0.49384853  0.50648204     1.01580
Fe1013     Fe  0.56695448  0.26205007  0.63516888     1.65780
Fe1014     Fe  0.55601055  0.14227586  0.68427167     1.73250
Fe1015     Fe  0.61087318  0.16101007  0.61516130     1.54420
O1016       O  0.59663091  0.19498221  0.54918000    -0.83050
O1017       O  0.58719243  0.13258651  0.73344894    -0.81350
O1018       O  0.55981347  0.24846997  0.56488450    -0.85550
O1019       O  0.60826455  0.29031025  0.62501956    -0.80410
O1020       O  0.58513287  0.10121959  0.59251414    -0.82180
O1021       O  0.54519147  0.20979551  0.72255673    -0.84930
C1022       C  0.63376958  0.27240641  0.62572155     0.95840
C1023       C  0.57412110  0.22187866  0.53630718     1.03280
O1024       O  0.57919182  0.18926319  0.64594636    -1.13910
O1025       O  0.52301556  0.15298603  0.63509732    -0.76340
O1026       O  0.52340949  0.24196007  0.64067063    -0.79830
O1027       O  0.63920883  0.22303525  0.62984582    -0.80520
C1028       C  0.51066162  0.19795935  0.62988439     0.94740
O1029       O  0.57507055  0.27429026  0.70627803    -0.78470
O1030       O  0.56928371  0.06704911  0.65573702    -0.83670
C1031       C  0.61237690  0.12014246  0.72563481     0.97360
C1032       C  0.58422950  0.06232785  0.61959240     1.03280
O1033       O  0.62334686  0.12504173  0.68403785    -0.79310
C1034       C  0.56422632  0.24385638  0.73616680     1.01580
Fe1035     Fe  0.67423943  0.45651459  0.85747774     1.65780
Fe1036     Fe  0.68520650  0.07629212  0.80839901     1.73250
Fe1037     Fe  0.63033655  0.05757314  0.87750804     1.54330
O1038       O  0.60199016  0.49555334  0.86282642    -0.83050
O1039       O  0.67195409  0.15152763  0.83694979    -0.81350
O1040       O  0.63292859  0.42827103  0.86763602    -0.85550
O1041       O  0.68138935  0.47008641  0.92776272    -0.80410
O1042       O  0.61786459  0.09355071  0.80863663    -0.82180
O1043       O  0.71820821  0.06553153  0.85755535    -0.84930
C1044       C  0.66708898  0.99668581  0.95634579     0.95840
C1045       C  0.60742504  0.44617813  0.86694005     1.03280
O1046       O  0.66201557  0.02931229  0.84671718    -1.13910
O1047       O  0.69600680  0.00877550  0.77009188    -0.76340
O1048       O  0.66611497  0.44429723  0.78636892    -0.79830
O1049       O  0.64458087  0.02359181  0.94348240    -0.80520
C1050       C  0.67696893  0.47472070  0.75648161     0.94740
O1051       O  0.71778702  0.97656019  0.85195448    -0.78470
O1052       O  0.65402306  0.08602495  0.75923063    -0.83670
C1053       C  0.65699737  0.15625094  0.87308124     0.97370
C1054       C  0.62883738  0.09846247  0.76704336     1.03280
O1055       O  0.65608437  0.11735602  0.90015532    -0.79310
C1056       C  0.73055446  0.02054440  0.86272364     1.01580
Fe1057     Fe  0.92426962  0.70643498  0.35739838     1.65780
Fe1058     Fe  0.93521394  0.82620916  0.30829585     1.73250
Fe1059     Fe  0.88035120  0.80747550  0.37740620     1.54420
O1060       O  0.85201535  0.74545041  0.36272178    -0.83050
O1061       O  0.92194113  0.90143614  0.33683056    -0.81350
O1062       O  0.88295949  0.67817517  0.36754744    -0.85550
O1063       O  0.93141060  0.72001493  0.42768279    -0.80410
O1064       O  0.86787762  0.84344390  0.30852965    -0.82180
O1065       O  0.96820885  0.81549842  0.35747020    -0.84930
C1066       C  0.91710319  0.74660662  0.45626016     0.95840
C1067       C  0.85745451  0.69607913  0.36684557     1.03280
O1068       O  0.91203249  0.77922204  0.34662106    -1.13910
O1069       O  0.94603279  0.75868944  0.27001059    -0.76340
O1070       O  0.91615355  0.69419494  0.28628922    -0.79830
O1071       O  0.89459346  0.77350336  0.44338747    -0.80520
C1072       C  0.92699792  0.72462863  0.25640047     0.94740
O1073       O  0.96781472  0.72652440  0.35189678    -0.78470
O1074       O  0.90403209  0.83589912  0.25911862    -0.83670
C1075       C  0.90699522  0.90615761  0.37297501     0.97360
C1076       C  0.87884762  0.84834325  0.26693273     1.03280
O1077       O  0.90609167  0.86726588  0.40005328    -0.79310
C1078       C  0.98056271  0.77052502  0.36268295     1.01580
Fe1079     Fe  0.81698476  0.01197030  0.13508909     1.65780
Fe1080     Fe  0.80601801  0.89219302  0.18416854     1.73250
Fe1081     Fe  0.86088781  0.91091198  0.11505928     1.54420
O1082       O  0.84664349  0.94489307  0.04908476    -0.83050
O1083       O  0.83720151  0.88246097  0.23333696    -0.81350
O1084       O  0.80983481  0.99839808  0.06480418    -0.85550
O1085       O  0.85829555  0.54021405  0.12493048    -0.80410
O1086       O  0.83514007  0.85112894  0.09241224    -0.82180
O1087       O  0.79521752  0.95970983  0.22247516    -0.84930
C1088       C  0.88379914  0.52230702  0.12562662     0.95840
C1089       C  0.82413536  0.97179893  0.03622119     1.03280
O1090       O  0.82920876  0.93917278  0.14585003    -1.13910
O1091       O  0.77301620  0.90295288  0.13501219    -0.76340
O1092       O  0.77343727  0.99192428  0.14061255    -0.79830
O1093       O  0.88923407  0.97293190  0.12974073    -0.80520
C1094       C  0.76066991  0.94793995  0.12984351     0.94740
O1095       O  0.82510924  0.52418817  0.20619786    -0.78470
O1096       O  0.81927069  0.81695752  0.15561815    -0.83670
C1097       C  0.86238715  0.87002326  0.22552417     0.97370
C1098       C  0.83422724  0.81223416  0.11948649     1.03280
O1099       O  0.87335986  0.87493473  0.18393082    -0.79310
C1100       C  0.81425539  0.99376469  0.23608529     1.01580
Fe1101     Fe  0.81696968  0.95644161  0.38508664     1.65780
Fe1102     Fe  0.80602708  0.57621612  0.43418525     1.73250
Fe1103     Fe  0.86088984  0.55747666  0.36507267     1.54420
O1104       O  0.88922527  0.99545152  0.37976084    -0.83050
O1105       O  0.81929552  0.65144009  0.40564046    -0.81350
O1106       O  0.85827912  0.92818041  0.37492571    -0.85550
O1107       O  0.80982484  0.97002448  0.31480366    -0.80410
O1108       O  0.87336540  0.59345200  0.43394465    -0.82180
O1109       O  0.77302607  0.56549835  0.38502584    -0.84930
C1110       C  0.82413654  0.49660618  0.28622484     0.95840
C1111       C  0.88378486  0.94608131  0.37562995     1.03280
O1112       O  0.82920733  0.52922792  0.39585942    -1.13910
O1113       O  0.79521157  0.50870029  0.47247806    -0.76340
O1114       O  0.82509063  0.94420523  0.45619451    -0.79830
O1115       O  0.84664827  0.52349719  0.29909594    -0.80520
C1116       C  0.81424539  0.97463648  0.48608485     0.94740
O1117       O  0.77342411  0.47652495  0.39060596    -0.78470
O1118       O  0.83721142  0.58591222  0.48335614    -0.83670
C1119       C  0.83424333  0.65615790  0.36949790     0.97360
C1120       C  0.86239578  0.59835463  0.47554118     1.03280
O1121       O  0.83514836  0.61726418  0.34242204    -0.79310
C1122       C  0.76066811  0.52052526  0.37984717     1.01580
Fe1123     Fe  0.92425436  0.76197650  0.10739592     1.65780
Fe1124     Fe  0.93522307  0.64219932  0.05831294     1.73250
Fe1125     Fe  0.88035311  0.66091308  0.12741967     1.54410
O1126       O  0.89459819  0.69488675  0.19339873    -0.83050
O1127       O  0.90404212  0.63247310  0.00913812    -0.81350
O1128       O  0.93140057  0.74840713  0.17768224    -0.85550
O1129       O  0.88294294  0.79021912  0.11754286    -0.80410
O1130       O  0.90609980  0.60112701  0.15006332    -0.82180
O1131       O  0.94602670  0.70971983  0.02001354    -0.84930
C1132       C  0.85744012  0.77230928  0.11684905     0.95840
C1133       C  0.91710438  0.72179806  0.20626382     1.03280
O1134       O  0.91203097  0.68917825  0.09663059    -1.13910
O1135       O  0.96821878  0.65295256  0.10748425    -0.76340
O1136       O  0.96780137  0.74192451  0.10188994    -0.79830
O1137       O  0.85200643  0.72293317  0.11274191    -0.80520
C1138       C  0.98056085  0.69794003  0.11268668     0.94740
O1139       O  0.91613467  0.77419781  0.03628587    -0.78470
O1140       O  0.92196613  0.56696091  0.08685347    -0.83670
C1141       C  0.87885626  0.62003440  0.01694984     0.97370
C1142       C  0.90701122  0.56223415  0.12298674     1.03280
O1143       O  0.86788307  0.62494292  0.05854349    -0.79310
C1144       C  0.92698776  0.74377185  0.00640006     1.01580
Fe1145     Fe  0.56697023  0.70650838  0.38517139     1.65780
Fe1146     Fe  0.55600121  0.82628581  0.43425366     1.73250
Fe1147     Fe  0.61087130  0.80757204  0.36514716     1.54410
O1148       O  0.63921811  0.74555208  0.37982509    -0.83050
O1149       O  0.56925787  0.90152424  0.40571276    -0.81350
O1150       O  0.60828170  0.67826596  0.37502479    -0.85550
O1151       O  0.55982405  0.72007736  0.31488500    -0.80410
O1152       O  0.62334125  0.84354252  0.43402320    -0.82180
O1153       O  0.52300560  0.81553185  0.38508237    -0.84930
C1154       C  0.57412007  0.74668669  0.28630334     0.95840
C1155       C  0.63378449  0.69617588  0.37571843     1.03280
O1156       O  0.57919347  0.77930682  0.39593635    -1.13910
O1157       O  0.54519776  0.75876549  0.47255357    -0.76340
O1158       O  0.57508990  0.69428757  0.45628150    -0.79830
O1159       O  0.59662623  0.77359813  0.29916826    -0.80520
C1160       C  0.56423671  0.72471353  0.48616719     0.94740
O1161       O  0.52342313  0.72655996  0.39067718    -0.78470
O1162       O  0.58718210  0.83601280  0.48342844    -0.83670
C1163       C  0.58421294  0.90625094  0.36957968     0.97360
C1164       C  0.61236799  0.84845133  0.47561677     1.03280
O1165       O  0.58512454  0.86735797  0.34250326    -0.79310
C1166       C  0.51066355  0.77054432  0.37988033     1.01580
Fe1167     Fe  0.67425501  0.01204344  0.10748024     1.65780
Fe1168     Fe  0.68519721  0.89226890  0.05838136     1.73250
Fe1169     Fe  0.63033457  0.91100891  0.12749398     1.54420
O1170       O  0.64457616  0.94498838  0.19347074    -0.83050
O1171       O  0.65401284  0.88257342  0.00921043    -0.81350
O1172       O  0.68139988  0.99846043  0.17776319    -0.85550
O1173       O  0.63294562  0.54030500  0.11764144    -0.80410
O1174       O  0.65607589  0.85122128  0.15014467    -0.82180
O1175       O  0.69601296  0.95978468  0.02008877    -0.84930
C1176       C  0.60743984  0.52240423  0.11693707     0.95840
C1177       C  0.66708797  0.97187910  0.20634196     1.03280
O1178       O  0.66201716  0.93925732  0.09670730    -1.13910
O1179       O  0.71819832  0.90298609  0.10754077    -0.76340
O1180       O  0.71780047  0.99195952  0.10196077    -0.79830
O1181       O  0.60199934  0.97303414  0.11280570    -0.80520
C1182       C  0.73055634  0.94795911  0.11271963     0.94740
O1183       O  0.66613406  0.52427997  0.03637239    -0.78470
O1184       O  0.67192842  0.81704516  0.08692609    -0.83670
C1185       C  0.62882848  0.87013108  0.01702542     0.97360
C1186       C  0.65698074  0.81232756  0.12306882     1.03280
O1187       O  0.61785891  0.87503362  0.05862200    -0.79310
C1188       C  0.67697916  0.99384853  0.00648203     1.01580
Fe1189     Fe  0.56695448  0.76205007  0.13516888     1.65780
Fe1190     Fe  0.55601055  0.64227585  0.18427167     1.73250
Fe1191     Fe  0.61087318  0.66101006  0.11516130     1.54420
O1192       O  0.59663091  0.69498220  0.04918000    -0.83050
O1193       O  0.58719244  0.63258651  0.23344894    -0.81350
O1194       O  0.55981347  0.74846996  0.06488450    -0.85550
O1195       O  0.60826455  0.79031024  0.12501955    -0.80410
O1196       O  0.58513287  0.60121958  0.09251414    -0.82180
O1197       O  0.54519147  0.70979551  0.22255673    -0.84930
C1198       C  0.63376958  0.77240641  0.12572155     0.95840
C1199       C  0.57412109  0.72187866  0.03630718     1.03280
O1200       O  0.57919182  0.68926319  0.14594636    -1.13910
O1201       O  0.52301556  0.65298602  0.13509732    -0.76340
O1202       O  0.52340949  0.74196006  0.14067063    -0.79830
O1203       O  0.63920883  0.72303524  0.12984582    -0.80520
C1204       C  0.51066162  0.69795934  0.12988439     0.94740
O1205       O  0.57507055  0.77429025  0.20627803    -0.78470
O1206       O  0.56928371  0.56704911  0.15573702    -0.83670
C1207       C  0.61237690  0.62014246  0.22563481     0.97360
C1208       C  0.58422950  0.56232784  0.11959241     1.03280
O1209       O  0.62334686  0.62504173  0.18403785    -0.79310
C1210       C  0.56422633  0.74385637  0.23616680     1.01580
Fe1211     Fe  0.67423943  0.95651459  0.35747774     1.65780
Fe1212     Fe  0.68520650  0.57629212  0.30839901     1.73250
Fe1213     Fe  0.63033656  0.55757315  0.37750804     1.54330
O1214       O  0.60199017  0.99555334  0.36282642    -0.83050
O1215       O  0.67195410  0.65152763  0.33694979    -0.81350
O1216       O  0.63292859  0.92827103  0.36763602    -0.85550
O1217       O  0.68138935  0.97008641  0.42776272    -0.80410
O1218       O  0.61786460  0.59355071  0.30863663    -0.82180
O1219       O  0.71820821  0.56553154  0.35755535    -0.84930
C1220       C  0.66708898  0.49668582  0.45634579     0.95840
C1221       C  0.60742504  0.94617813  0.36694004     1.03280
O1222       O  0.66201558  0.52931230  0.34671719    -1.13910
O1223       O  0.69600680  0.50877550  0.27009188    -0.76340
O1224       O  0.66611497  0.94429723  0.28636891    -0.79830
O1225       O  0.64458087  0.52359182  0.44348240    -0.80520
C1226       C  0.67696893  0.97472070  0.25648160     0.94740
O1227       O  0.71778702  0.47656020  0.35195448    -0.78470
O1228       O  0.65402307  0.58602495  0.25923063    -0.83670
C1229       C  0.65699738  0.65625094  0.37308124     0.97370
C1230       C  0.62883738  0.59846247  0.26704336     1.03280
O1231       O  0.65608438  0.61735603  0.40015532    -0.79310
C1232       C  0.73055447  0.52054440  0.36272364     1.01580
Fe1233     Fe  0.92426962  0.70643497  0.85739838     1.65780
Fe1234     Fe  0.93521394  0.82620916  0.80829586     1.73250
Fe1235     Fe  0.88035120  0.80747549  0.87740620     1.54420
O1236       O  0.85201535  0.74545041  0.86272178    -0.83050
O1237       O  0.92194113  0.90143613  0.83683057    -0.81350
O1238       O  0.88295949  0.67817517  0.86754743    -0.85550
O1239       O  0.93141060  0.72001493  0.92768279    -0.80410
O1240       O  0.86787761  0.84344389  0.80852965    -0.82180
O1241       O  0.96820884  0.81549842  0.85747020    -0.84930
C1242       C  0.91710319  0.74660661  0.95626016     0.95840
C1243       C  0.85745451  0.69607913  0.86684557     1.03280
O1244       O  0.91203248  0.77922204  0.84662106    -1.13910
O1245       O  0.94603279  0.75868944  0.77001059    -0.76340
O1246       O  0.91615354  0.69419494  0.78628922    -0.79830
O1247       O  0.89459346  0.77350335  0.94338747    -0.80520
C1248       C  0.92699792  0.72462863  0.75640047     0.94740
O1249       O  0.96781472  0.72652440  0.85189678    -0.78470
O1250       O  0.90403209  0.83589912  0.75911863    -0.83670
C1251       C  0.90699521  0.90615761  0.87297501     0.97360
C1252       C  0.87884762  0.84834325  0.76693273     1.03280
O1253       O  0.90609167  0.86726588  0.90005328    -0.79310
C1254       C  0.98056271  0.77052502  0.86268295     1.01580
Fe1255     Fe  0.81698476  0.01197031  0.63508909     1.65780
Fe1256     Fe  0.80601801  0.89219303  0.68416854     1.73250
Fe1257     Fe  0.86088781  0.91091199  0.61505928     1.54420
O1258       O  0.84664349  0.94489307  0.54908477    -0.83050
O1259       O  0.83720150  0.88246097  0.73333696    -0.81350
O1260       O  0.80983481  0.99839809  0.56480418    -0.85550
O1261       O  0.85829555  0.54021406  0.62493048    -0.80410
O1262       O  0.83514007  0.85112895  0.59241224    -0.82180
O1263       O  0.79521752  0.95970983  0.72247516    -0.84930
C1264       C  0.88379914  0.52230703  0.62562663     0.95840
C1265       C  0.82413536  0.97179894  0.53622119     1.03280
O1266       O  0.82920876  0.93917278  0.64585003    -1.13910
O1267       O  0.77301620  0.90295288  0.63501219    -0.76340
O1268       O  0.77343727  0.99192428  0.64061255    -0.79830
O1269       O  0.88923407  0.97293191  0.62974074    -0.80520
C1270       C  0.76066991  0.94793996  0.62984351     0.94740
O1271       O  0.82510924  0.52418817  0.70619786    -0.78470
O1272       O  0.81927069  0.81695752  0.65561814    -0.83670
C1273       C  0.86238715  0.87002327  0.72552418     0.97370
C1274       C  0.83422724  0.81223416  0.61948649     1.03280
O1275       O  0.87335986  0.87493473  0.68393082    -0.79310
C1276       C  0.81425539  0.99376469  0.73608529     1.01580
Fe1277     Fe  0.81696967  0.95644161  0.88508664     1.65780
Fe1278     Fe  0.80602708  0.57621612  0.93418525     1.73250
Fe1279     Fe  0.86088983  0.55747665  0.86507267     1.54420
O1280       O  0.88922527  0.99545152  0.87976084    -0.83050
O1281       O  0.81929552  0.65144009  0.90564046    -0.81350
O1282       O  0.85827912  0.92818041  0.87492571    -0.85550
O1283       O  0.80982484  0.97002448  0.81480366    -0.80410
O1284       O  0.87336540  0.59345200  0.93394465    -0.82180
O1285       O  0.77302606  0.56549835  0.88502584    -0.84930
C1286       C  0.82413653  0.49660618  0.78622484     0.95840
C1287       C  0.88378486  0.94608131  0.87562995     1.03280
O1288       O  0.82920732  0.52922792  0.89585943    -1.13910
O1289       O  0.79521157  0.50870028  0.97247806    -0.76340
O1290       O  0.82509062  0.94420523  0.95619451    -0.79830
O1291       O  0.84664826  0.52349719  0.79909594    -0.80520
C1292       C  0.81424538  0.97463647  0.98608485     0.94740
O1293       O  0.77342410  0.47652495  0.89060596    -0.78470
O1294       O  0.83721142  0.58591222  0.98335615    -0.83670
C1295       C  0.83424333  0.65615789  0.86949790     0.97360
C1296       C  0.86239578  0.59835463  0.97554118     1.03280
O1297       O  0.83514836  0.61726418  0.84242204    -0.79310
C1298       C  0.76066811  0.52052526  0.87984717     1.01580
Fe1299     Fe  0.92425436  0.76197650  0.60739592     1.65780
Fe1300     Fe  0.93522307  0.64219932  0.55831295     1.73250
Fe1301     Fe  0.88035311  0.66091309  0.62741967     1.54410
O1302       O  0.89459819  0.69488675  0.69339873    -0.83050
O1303       O  0.90404212  0.63247310  0.50913812    -0.81350
O1304       O  0.93140057  0.74840713  0.67768224    -0.85550
O1305       O  0.88294294  0.79021912  0.61754286    -0.80410
O1306       O  0.90609980  0.60112701  0.65006332    -0.82180
O1307       O  0.94602670  0.70971983  0.52001354    -0.84930
C1308       C  0.85744012  0.77230928  0.61684905     0.95840
C1309       C  0.91710437  0.72179806  0.70626382     1.03280
O1310       O  0.91203097  0.68917825  0.59663059    -1.13910
O1311       O  0.96821878  0.65295256  0.60748425    -0.76340
O1312       O  0.96780137  0.74192452  0.60188994    -0.79830
O1313       O  0.85200643  0.72293317  0.61274190    -0.80520
C1314       C  0.98056085  0.69794003  0.61268668     0.94740
O1315       O  0.91613468  0.77419781  0.53628587    -0.78470
O1316       O  0.92196613  0.56696091  0.58685347    -0.83670
C1317       C  0.87885626  0.62003440  0.51694984     0.97370
C1318       C  0.90701122  0.56223416  0.62298675     1.03280
O1319       O  0.86788307  0.62494292  0.55854349    -0.79310
C1320       C  0.92698776  0.74377185  0.50640006     1.01580
Fe1321     Fe  0.56697023  0.70650838  0.88517139     1.65780
Fe1322     Fe  0.55600120  0.82628581  0.93425366     1.73250
Fe1323     Fe  0.61087130  0.80757204  0.86514716     1.54410
O1324       O  0.63921811  0.74555207  0.87982509    -0.83050
O1325       O  0.56925787  0.90152424  0.90571276    -0.81350
O1326       O  0.60828170  0.67826596  0.87502479    -0.85550
O1327       O  0.55982405  0.72007736  0.81488500    -0.80410
O1328       O  0.62334125  0.84354252  0.93402320    -0.82180
O1329       O  0.52300559  0.81553185  0.88508237    -0.84930
C1330       C  0.57412007  0.74668669  0.78630334     0.95840
C1331       C  0.63378449  0.69617588  0.87571843     1.03280
O1332       O  0.57919347  0.77930682  0.89593635    -1.13910
O1333       O  0.54519776  0.75876548  0.97255357    -0.76340
O1334       O  0.57508990  0.69428757  0.95628150    -0.79830
O1335       O  0.59662623  0.77359813  0.79916826    -0.80520
C1336       C  0.56423671  0.72471353  0.98616719     0.94740
O1337       O  0.52342312  0.72655996  0.89067718    -0.78470
O1338       O  0.58718210  0.83601280  0.98342845    -0.83670
C1339       C  0.58421293  0.90625094  0.86957968     0.97360
C1340       C  0.61236799  0.84845133  0.97561678     1.03280
O1341       O  0.58512453  0.86735796  0.84250327    -0.79310
C1342       C  0.51066355  0.77054432  0.87988033     1.01580
Fe1343     Fe  0.67425501  0.01204344  0.60748024     1.65780
Fe1344     Fe  0.68519721  0.89226890  0.55838136     1.73250
Fe1345     Fe  0.63033457  0.91100891  0.62749398     1.54420
O1346       O  0.64457616  0.94498838  0.69347073    -0.83050
O1347       O  0.65401284  0.88257342  0.50921043    -0.81350
O1348       O  0.68139988  0.99846043  0.67776319    -0.85550
O1349       O  0.63294562  0.54030500  0.61764144    -0.80410
O1350       O  0.65607589  0.85122129  0.65014467    -0.82180
O1351       O  0.69601296  0.95978468  0.52008877    -0.84930
C1352       C  0.60743984  0.52240423  0.61693707     0.95840
C1353       C  0.66708797  0.97187910  0.70634196     1.03280
O1354       O  0.66201716  0.93925732  0.59670730    -1.13910
O1355       O  0.71819832  0.90298609  0.60754077    -0.76340
O1356       O  0.71780047  0.99195952  0.60196077    -0.79830
O1357       O  0.60199934  0.97303414  0.61280570    -0.80520
C1358       C  0.73055634  0.94795911  0.61271963     0.94740
O1359       O  0.66613406  0.52427997  0.53637239    -0.78470
O1360       O  0.67192842  0.81704516  0.58692609    -0.83670
C1361       C  0.62882848  0.87013108  0.51702542     0.97360
C1362       C  0.65698074  0.81232756  0.62306882     1.03280
O1363       O  0.61785891  0.87503363  0.55862199    -0.79310
C1364       C  0.67697916  0.99384853  0.50648203     1.01580
Fe1365     Fe  0.56695448  0.76205007  0.63516888     1.65780
Fe1366     Fe  0.55601055  0.64227586  0.68427167     1.73250
Fe1367     Fe  0.61087318  0.66101007  0.61516130     1.54420
O1368       O  0.59663091  0.69498221  0.54918000    -0.83050
O1369       O  0.58719243  0.63258651  0.73344894    -0.81350
O1370       O  0.55981347  0.74846997  0.56488450    -0.85550
O1371       O  0.60826455  0.79031024  0.62501955    -0.80410
O1372       O  0.58513287  0.60121958  0.59251414    -0.82180
O1373       O  0.54519147  0.70979551  0.72255673    -0.84930
C1374       C  0.63376958  0.77240641  0.62572155     0.95840
C1375       C  0.57412109  0.72187866  0.53630718     1.03280
O1376       O  0.57919182  0.68926319  0.64594636    -1.13910
O1377       O  0.52301556  0.65298602  0.63509732    -0.76340
O1378       O  0.52340949  0.74196007  0.64067063    -0.79830
O1379       O  0.63920883  0.72303525  0.62984582    -0.80520
C1380       C  0.51066162  0.69795934  0.62988439     0.94740
O1381       O  0.57507055  0.77429026  0.70627803    -0.78470
O1382       O  0.56928371  0.56704911  0.65573702    -0.83670
C1383       C  0.61237690  0.62014246  0.72563481     0.97360
C1384       C  0.58422950  0.56232784  0.61959240     1.03280
O1385       O  0.62334686  0.62504173  0.68403785    -0.79310
C1386       C  0.56422632  0.74385637  0.73616680     1.01580
Fe1387     Fe  0.67423943  0.95651459  0.85747774     1.65780
Fe1388     Fe  0.68520650  0.57629212  0.80839901     1.73250
Fe1389     Fe  0.63033655  0.55757315  0.87750804     1.54330
O1390       O  0.60199016  0.99555334  0.86282642    -0.83050
O1391       O  0.67195410  0.65152763  0.83694979    -0.81350
O1392       O  0.63292859  0.92827103  0.86763602    -0.85550
O1393       O  0.68138935  0.97008641  0.92776272    -0.80410
O1394       O  0.61786460  0.59355071  0.80863663    -0.82180
O1395       O  0.71820821  0.56553154  0.85755535    -0.84930
C1396       C  0.66708898  0.49668582  0.95634579     0.95840
C1397       C  0.60742503  0.94617813  0.86694004     1.03280
O1398       O  0.66201558  0.52931229  0.84671719    -1.13910
O1399       O  0.69600680  0.50877550  0.77009188    -0.76340
O1400       O  0.66611497  0.94429723  0.78636891    -0.79830
O1401       O  0.64458087  0.52359182  0.94348240    -0.80520
C1402       C  0.67696893  0.97472070  0.75648160     0.94740
O1403       O  0.71778702  0.47656020  0.85195448    -0.78470
O1404       O  0.65402306  0.58602495  0.75923063    -0.83670
C1405       C  0.65699738  0.65625094  0.87308124     0.97370
C1406       C  0.62883738  0.59846247  0.76704336     1.03280
O1407       O  0.65608437  0.61735603  0.90015532    -0.79310
C1408       C  0.73055447  0.52054440  0.86272364     1.01580
loop_ 
_geom_bond_atom_site_label_1 
_geom_bond_atom_site_label_2 
_geom_bond_distance 
_geom_bond_site_symmetry_2 
_ccdc_geom_bond_type 
Fe1          O17   2.118       .  S
Fe1           O7   2.015       .  S
Fe1          O14   2.038       .  S
Fe1           O6   2.098       .  S
Fe1          O12   1.930       .  S
Fe2           O5   2.152       .  S
Fe2           O9   2.038       .  S
Fe2          O13   2.081       .  S
Fe2          O18   1.974       .  S
Fe2          O12   1.963       .  S
Fe3          O21   2.006       .  S
Fe3           O8   2.187       .  S
Fe3          O15   2.116       .  S
Fe3           O4   2.072       .  S
Fe3          O12   1.897       .  S
O4           C11   1.266       .  A
O5           C19   1.270       .  A
O6           C11   1.278       .  A
O7           C10   1.264       .  A
O8           C20   1.308       .  A
O9           C22   1.272       .  A
C10          O15   1.289       .  A
C10         C264   1.462       .  S
C11          C63   1.483       .  S
O13          C16   1.279       .  A
O14          C16   1.261       .  A
C16          C77   1.462       .  S
O17          C22   1.282       .  A
O18          C20   1.253       .  A
C19          O21   1.238       .  A
C19          C55   1.483       .  S
C20          C41   1.467       .  S
C22         C814   1.469       .  S
Fe23         O36   2.118       .  S
Fe23         O28   2.015       .  S
Fe23        O391   2.038       .  S
Fe23        O381   2.098       .  S
Fe23         O34   1.930       .  S
Fe24         O27   1.974       .  S
Fe24         O31   2.081       .  S
Fe24         O35   2.038       .  S
Fe24         O40   2.152       .  S
Fe24         O34   1.963       .  S
Fe25         O43   2.187       .  S
Fe25         O30   2.006       .  S
Fe25         O37   2.072       .  S
Fe25         O26   2.116       .  S
Fe25         O34   1.897       .  S
O26          C33   1.289       .  A
O27          C41   1.253       .  A
O28          C33   1.264       .  A
O29        Fe375   2.098       .  S
O29          C32   1.277       .  A
O30          C42   1.238       .  A
O31          C44   1.279       .  A
C32         O389   1.267   1_545  A
C32          C86   1.484       .  S
C33         C236   1.462   1_554  S
O35          C38   1.272       .  A
O36          C38   1.282       .  A
O37         C384   1.267       .  A
C38         C126   1.469       .  S
O39        Fe375   2.038       .  S
O39         C396   1.261   1_545  A
O40          C42   1.270       .  A
C41          O43   1.308       .  A
C42          C76   1.483       .  S
C44         O391   1.261       .  A
C44         C406   1.462       .  S
Fe45         O51   2.015       .  S
Fe45         O58   2.038       .  S
Fe45         O50   2.098       .  S
Fe45        O413   2.119       .  S
Fe45        O408   1.930       .  S
Fe46         O49   2.152       .  S
Fe46         O53   2.038       .  S
Fe46         O57   2.081       .  S
Fe46         O62   1.974       .  S
Fe46         O56   1.963       .  S
Fe47         O65   2.006       .  S
Fe47         O52   2.187       .  S
Fe47         O59   2.116       .  S
Fe47        O400   2.072   1_545  S
Fe47         O56   1.897       .  S
O48        Fe399   2.072       .  S
O48          C55   1.266       .  A
O49          C63   1.270       .  A
O50          C55   1.278       .  A
O51         C406   1.264       .  A
O52          C64   1.308       .  A
O53          C66   1.272       .  A
C54          O59   1.289   1_565  A
C54         O403   1.264       .  A
C54         C396   1.462       .  S
O56        Fe397   1.930   1_545  S
O57         C412   1.279   1_545  A
O58          C60   1.261       .  A
C60         O409   1.279       .  A
C60         C209   1.462       .  S
O61        Fe397   2.119       .  S
O61          C66   1.282   1_565  A
O62          C64   1.253       .  A
C63          O65   1.238       .  A
C64         C261   1.467       .  S
C66         C176   1.469       .  S
Fe67         O83   2.038       .  S
Fe67         O73   2.098       .  S
Fe67         O80   2.118       .  S
Fe67         O72   2.015       .  S
Fe67         O78   1.930       .  S
Fe68         O71   1.974       .  S
Fe68         O75   2.081       .  S
Fe68         O79   2.038       .  S
Fe68         O84   2.153       .  S
Fe68         O78   1.963       .  S
Fe69         O87   2.187       .  S
Fe69         O74   2.006       .  S
Fe69         O81   2.072       .  S
Fe69         O70   2.116       .  S
Fe69         O78   1.897       .  S
O70          C77   1.289       .  A
O71          C85   1.253       .  A
O72          C77   1.264       .  A
O73          C76   1.277       .  A
O74          C86   1.238       .  A
O75          C88   1.279       .  A
C76          O81   1.267       .  A
O79          C82   1.272       .  A
O80          C82   1.282       .  A
C82         C852   1.469       .  S
O83          C88   1.261       .  A
O84          C86   1.270       .  A
C85          O87   1.308       .  A
C85         C240   1.467   1_554  S
C88         C186   1.462   1_554  S
Fe89        O105   2.118       .  S
Fe89         O95   2.015       .  S
Fe89        O102   2.038       .  S
Fe89         O94   2.098       .  S
Fe89        O100   1.930       .  S
Fe90         O93   2.153       .  S
Fe90         O97   2.038       .  S
Fe90        O101   2.081       .  S
Fe90        O106   1.974       .  S
Fe90        O100   1.963       .  S
Fe91        O109   2.006       .  S
Fe91         O96   2.187       .  S
Fe91        O103   2.116       .  S
Fe91         O92   2.072       .  S
Fe91        O100   1.897       .  S
O92          C99   1.267       .  A
O93         C107   1.270       .  A
O94          C99   1.277       .  A
O95          C98   1.264       .  A
O96         C108   1.308       .  A
O97         C110   1.272       .  A
C98         O103   1.289       .  A
C98         C154   1.462       .  S
C99         C173   1.483       .  S
O101        C104   1.279       .  A
O102        C104   1.261       .  A
C104        C319   1.462       .  S
O105        C110   1.282       .  A
O106        C108   1.253       .  A
C107        O109   1.238       .  A
C107        C165   1.484       .  S
C108        C305   1.467       .  S
C110        C726   1.469   1_455  S
Fe111       O124   2.119       .  S
Fe111       O116   2.015       .  S
Fe111       O479   2.038       .  S
Fe111       O469   2.098       .  S
Fe111       O122   1.930       .  S
Fe112       O115   1.974       .  S
Fe112       O119   2.081       .  S
Fe112       O123   2.038       .  S
Fe112       O128   2.152       .  S
Fe112       O122   1.963       .  S
Fe113       O131   2.187       .  S
Fe113       O118   2.006       .  S
Fe113       O125   2.072       .  S
Fe113       O114   2.116       .  S
Fe113       O122   1.897       .  S
O114        C121   1.289       .  A
O115        C129   1.253       .  A
O116        C121   1.264       .  A
O117       Fe463   2.098       .  S
O117        C120   1.278       .  A
O118        C130   1.238       .  A
O119        C132   1.279       .  A
C120        O477   1.266   1_545  A
C120        C152   1.483       .  S
C121        C170   1.462       .  S
O123        C126   1.272       .  A
O124        C126   1.282       .  A
O125        C472   1.266       .  A
O127       Fe463   2.038       .  S
O127        C484   1.261   1_545  A
O128        C130   1.270       .  A
C129        O131   1.308       .  A
C129        C284   1.467   1_554  S
C130        C142   1.483       .  S
C132        O479   1.261       .  A
C132        C692   1.462   1_554  S
Fe133       O149   2.038       .  S
Fe133       O139   2.098       .  S
Fe133       O146   2.118       .  S
Fe133       O138   2.015       .  S
Fe133       O144   1.930       .  S
Fe134       O137   1.974       .  S
Fe134       O141   2.081       .  S
Fe134       O145   2.038       .  S
Fe134       O150   2.152       .  S
Fe134       O144   1.963       .  S
Fe135       O153   2.187       .  S
Fe135       O140   2.006       .  S
Fe135       O147   2.072       .  S
Fe135       O136   2.116       .  S
Fe135       O144   1.897       .  S
O136        C143   1.289       .  A
O137        C151   1.253       .  A
O138        C143   1.264       .  A
O139        C142   1.278       .  A
O140        C152   1.238       .  A
O141        C154   1.279       .  A
C142        O147   1.266       .  A
C143        C280   1.462   1_554  S
O145        C148   1.272       .  A
O146        C148   1.282       .  A
C148        C786   1.469   1_455  S
O149        C154   1.261       .  A
O150        C152   1.270       .  A
C151        O153   1.308       .  A
C151        C174   1.467       .  S
Fe155       O161   2.015       .  S
Fe155       O168   2.038       .  S
Fe155       O160   2.098       .  S
Fe155       O523   2.118       .  S
Fe155       O518   1.930       .  S
Fe156       O159   2.152       .  S
Fe156       O163   2.038       .  S
Fe156       O167   2.081       .  S
Fe156       O172   1.974       .  S
Fe156       O166   1.963       .  S
Fe157       O175   2.006       .  S
Fe157       O162   2.187       .  S
Fe157       O169   2.116       .  S
Fe157       O510   2.072   1_545  S
Fe157       O166   1.897       .  S
O158       Fe509   2.072       .  S
O158        C165   1.267       .  A
O159        C173   1.270       .  A
O160        C165   1.277       .  A
O161        C516   1.264       .  A
O162        C174   1.308       .  A
O163        C176   1.272       .  A
C164        O169   1.289   1_565  A
C164        O513   1.264       .  A
C164        C660   1.462       .  S
O166       Fe507   1.930   1_545  S
O167        C522   1.279   1_545  A
O168        C170   1.261       .  A
C170        O519   1.279       .  A
O171       Fe507   2.118       .  S
O171        C176   1.282   1_565  A
O172        C174   1.253       .  A
C173        O175   1.238       .  A
Fe177       O193   2.118       .  S
Fe177       O183   2.015       .  S
Fe177       O190   2.038       .  S
Fe177       O182   2.098       .  S
Fe177       O188   1.930       .  S
Fe178       O181   2.152       .  S
Fe178       O185   2.038       .  S
Fe178       O189   2.081       .  S
Fe178       O194   1.974       .  S
Fe178       O188   1.963       .  S
Fe179       O197   2.006       .  S
Fe179       O184   2.187       .  S
Fe179       O191   2.116       .  S
Fe179       O180   2.072       .  S
Fe179       O188   1.897       .  S
O180        C187   1.266       .  A
O181        C195   1.270       .  A
O182        C187   1.278       .  A
O183        C186   1.264       .  A
O184        C196   1.308       .  A
O185        C198   1.272       .  A
C186        O191   1.289       .  A
C187        C239   1.483       .  S
O189        C192   1.279       .  A
O190        C192   1.261       .  A
C192        C253   1.462       .  S
O193        C198   1.282       .  A
O194        C196   1.253       .  A
C195        O197   1.238       .  A
C195        C231   1.483       .  S
C196        C217   1.467       .  S
C198        C990   1.469       .  S
Fe199       O567   2.038       .  S
Fe199       O557   2.098       .  S
Fe199       O212   2.118       .  S
Fe199       O204   2.015       .  S
Fe199       O210   1.930       .  S
Fe200       O203   1.974       .  S
Fe200       O207   2.081       .  S
Fe200       O211   2.038       .  S
Fe200       O216   2.152       .  S
Fe200       O210   1.963       .  S
Fe201       O219   2.187       .  S
Fe201       O206   2.006       .  S
Fe201       O213   2.072       .  S
Fe201       O202   2.116       .  S
Fe201       O210   1.897       .  S
O202        C209   1.289       .  A
O203        C217   1.253       .  A
O204        C209   1.264       .  A
O205       Fe551   2.098       .  S
O205        C208   1.277       .  A
O206        C218   1.238       .  A
O207        C220   1.279       .  A
C208        O565   1.267   1_545  A
C208        C262   1.484       .  S
O211        C214   1.272       .  A
O212        C214   1.282       .  A
O213        C560   1.267       .  A
C214        C302   1.469       .  S
O215       Fe551   2.038       .  S
O215        C572   1.261   1_545  A
O216        C218   1.270       .  A
C217        O219   1.308       .  A
C218        C252   1.483       .  S
C220        O567   1.261       .  A
C220        C582   1.462       .  S
Fe221       O589   2.119       .  S
Fe221       O227   2.015       .  S
Fe221       O234   2.038       .  S
Fe221       O226   2.098       .  S
Fe221       O584   1.930       .  S
Fe222       O225   2.152       .  S
Fe222       O229   2.038       .  S
Fe222       O233   2.081       .  S
Fe222       O238   1.974       .  S
Fe222       O232   1.963       .  S
Fe223       O241   2.006       .  S
Fe223       O228   2.187       .  S
Fe223       O235   2.116       .  S
Fe223       O576   2.072   1_545  S
Fe223       O232   1.897       .  S
O224       Fe575   2.072       .  S
O224        C231   1.266       .  A
O225        C239   1.270       .  A
O226        C231   1.278       .  A
O227        C582   1.264       .  A
O228        C240   1.308       .  A
O229        C242   1.272       .  A
C230        O579   1.264       .  A
C230        O235   1.289   1_565  A
C230        C572   1.462       .  S
O232       Fe573   1.930   1_545  S
O233        C588   1.279   1_545  A
O234        C236   1.261       .  A
C236        O585   1.279       .  A
O237       Fe573   2.119       .  S
O237        C242   1.282   1_565  A
O238        C240   1.253       .  A
C239        O241   1.238       .  A
C242        C352   1.469       .  S
Fe243       O259   2.038       .  S
Fe243       O249   2.098       .  S
Fe243       O256   2.118       .  S
Fe243       O248   2.015       .  S
Fe243       O254   1.930       .  S
Fe244       O247   1.974       .  S
Fe244       O251   2.081       .  S
Fe244       O255   2.038       .  S
Fe244       O260   2.153       .  S
Fe244       O254   1.963       .  S
Fe245       O263   2.187       .  S
Fe245       O250   2.006       .  S
Fe245       O257   2.072       .  S
Fe245       O246   2.116       .  S
Fe245       O254   1.897       .  S
O246        C253   1.289       .  A
O247        C261   1.253       .  A
O248        C253   1.264       .  A
O249        C252   1.277       .  A
O250        C262   1.238       .  A
O251        C264   1.279       .  A
C252        O257   1.267       .  A
O255        C258   1.272       .  A
O256        C258   1.282       .  A
C258       C1028   1.469       .  S
O259        C264   1.261       .  A
O260        C262   1.270       .  A
C261        O263   1.308       .  A
Fe265       O281   2.118       .  S
Fe265       O271   2.015       .  S
Fe265       O278   2.038       .  S
Fe265       O270   2.098       .  S
Fe265       O276   1.930       .  S
Fe266       O269   2.153       .  S
Fe266       O273   2.038       .  S
Fe266       O277   2.081       .  S
Fe266       O282   1.974       .  S
Fe266       O276   1.963       .  S
Fe267       O285   2.006       .  S
Fe267       O272   2.187       .  S
Fe267       O279   2.116       .  S
Fe267       O268   2.072       .  S
Fe267       O276   1.897       .  S
O268        C275   1.267       .  A
O269        C283   1.270       .  A
O270        C275   1.277       .  A
O271        C274   1.264       .  A
O272        C284   1.308       .  A
O273        C286   1.272       .  A
C274        O279   1.289       .  A
C274        C330   1.462       .  S
C275        C349   1.483       .  S
O277        C280   1.279       .  A
O278        C280   1.261       .  A
O281        C286   1.282       .  A
O282        C284   1.253       .  A
C283        O285   1.238       .  A
C283        C341   1.484       .  S
C286        C902   1.469   1_455  S
Fe287       O655   2.038       .  S
Fe287       O645   2.098       .  S
Fe287       O300   2.119       .  S
Fe287       O292   2.015       .  S
Fe287       O298   1.930       .  S
Fe288       O291   1.974       .  S
Fe288       O295   2.081       .  S
Fe288       O299   2.038       .  S
Fe288       O304   2.152       .  S
Fe288       O298   1.963       .  S
Fe289       O307   2.187       .  S
Fe289       O294   2.006       .  S
Fe289       O301   2.072       .  S
Fe289       O290   2.116       .  S
Fe289       O298   1.897       .  S
O290        C297   1.289       .  A
O291        C305   1.253       .  A
O292        C297   1.264       .  A
O293       Fe639   2.098       .  S
O293        C296   1.278       .  A
O294        C306   1.238       .  A
O295        C308   1.279       .  A
C296        O653   1.266   1_545  A
C296        C328   1.483       .  S
C297        C346   1.462       .  S
O299        C302   1.272       .  A
O300        C302   1.282       .  A
O301        C648   1.266       .  A
O303       Fe639   2.038       .  S
O303        C660   1.261   1_545  A
O304        C306   1.270       .  A
C305        O307   1.308       .  A
C306        C318   1.483       .  S
C308        O655   1.261       .  A
C308        C516   1.462       .  S
Fe309       O325   2.038       .  S
Fe309       O315   2.098       .  S
Fe309       O322   2.118       .  S
Fe309       O314   2.015       .  S
Fe309       O320   1.930       .  S
Fe310       O313   1.974       .  S
Fe310       O317   2.081       .  S
Fe310       O321   2.038       .  S
Fe310       O326   2.152       .  S
Fe310       O320   1.963       .  S
Fe311       O329   2.187       .  S
Fe311       O316   2.006       .  S
Fe311       O323   2.072       .  S
Fe311       O312   2.116       .  S
Fe311       O320   1.897       .  S
O312        C319   1.289       .  A
O313        C327   1.253       .  A
O314        C319   1.264       .  A
O315        C318   1.278       .  A
O316        C328   1.238       .  A
O317        C330   1.279       .  A
C318        O323   1.266       .  A
O321        C324   1.272       .  A
O322        C324   1.282       .  A
C324        C962   1.469   1_455  S
O325        C330   1.261       .  A
O326        C328   1.270       .  A
C327        O329   1.308       .  A
C327        C350   1.467       .  S
Fe331       O699   2.118       .  S
Fe331       O337   2.015       .  S
Fe331       O344   2.038       .  S
Fe331       O336   2.098       .  S
Fe331       O694   1.930       .  S
Fe332       O335   2.152       .  S
Fe332       O339   2.038       .  S
Fe332       O343   2.081       .  S
Fe332       O348   1.974       .  S
Fe332       O342   1.963       .  S
Fe333       O351   2.006       .  S
Fe333       O338   2.187       .  S
Fe333       O345   2.116       .  S
Fe333       O686   2.072   1_545  S
Fe333       O342   1.897       .  S
O334       Fe685   2.072       .  S
O334        C341   1.267       .  A
O335        C349   1.270       .  A
O336        C341   1.277       .  A
O337        C692   1.264       .  A
O338        C350   1.308       .  A
O339        C352   1.272       .  A
C340        O689   1.264       .  A
C340        O345   1.289   1_565  A
C340        C484   1.462   1_556  S
O342       Fe683   1.930   1_545  S
O343        C698   1.279   1_545  A
O344        C346   1.261       .  A
C346        O695   1.279       .  A
O347       Fe683   2.118       .  S
O347        C352   1.282   1_565  A
O348        C350   1.253       .  A
C349        O351   1.238       .  A
Fe353       O369   2.118       .  S
Fe353       O359   2.015       .  S
Fe353       O366   2.038       .  S
Fe353       O358   2.098       .  S
Fe353       O364   1.930       .  S
Fe354       O357   2.152       .  S
Fe354       O361   2.038       .  S
Fe354       O365   2.081       .  S
Fe354       O370   1.974       .  S
Fe354       O364   1.963       .  S
Fe355       O373   2.006       .  S
Fe355       O360   2.187       .  S
Fe355       O367   2.116       .  S
Fe355       O356   2.072       .  S
Fe355       O364   1.897       .  S
O356        C363   1.266       .  A
O357        C371   1.270       .  A
O358        C363   1.278       .  A
O359        C362   1.264       .  A
O360        C372   1.308       .  A
O361        C374   1.272       .  A
C362        O367   1.289       .  A
C362        C616   1.462       .  S
C363        C415   1.483       .  S
O365        C368   1.279       .  A
O366        C368   1.261       .  A
C368        C429   1.462       .  S
O369        C374   1.282       .  A
O370        C372   1.253       .  A
C371        O373   1.238       .  A
C371        C407   1.483       .  S
C372        C393   1.467       .  S
C374       C1166   1.469       .  S
Fe375       O388   2.118   1_545  S
Fe375       O380   2.015   1_545  S
Fe375       O386   1.930   1_545  S
Fe376       O379   1.974       .  S
Fe376       O383   2.081       .  S
Fe376       O387   2.038       .  S
Fe376       O392   2.152       .  S
Fe376       O386   1.963       .  S
Fe377       O395   2.187       .  S
Fe377       O382   2.006       .  S
Fe377       O389   2.072       .  S
Fe377       O378   2.116       .  S
Fe377       O386   1.897       .  S
O378        C385   1.289       .  A
O379        C393   1.253       .  A
O380        C385   1.264       .  A
O381        C384   1.277       .  A
O382        C394   1.238       .  A
O383        C396   1.279       .  A
C384        C438   1.484       .  S
C385        C588   1.462   1_554  S
O387        C390   1.272       .  A
O388        C390   1.282       .  A
C390        C478   1.469       .  S
O392        C394   1.270       .  A
C393        O395   1.308       .  A
C394        C428   1.483       .  S
Fe397       O403   2.015       .  S
Fe397       O410   2.038       .  S
Fe397       O402   2.098       .  S
Fe398       O401   2.152       .  S
Fe398       O405   2.038       .  S
Fe398       O409   2.081       .  S
Fe398       O414   1.974       .  S
Fe398       O408   1.963       .  S
Fe399       O417   2.006       .  S
Fe399       O404   2.187       .  S
Fe399       O411   2.116       .  S
Fe399       O408   1.897       .  S
O400        C407   1.266       .  A
O401        C415   1.270       .  A
O402        C407   1.278       .  A
O404        C416   1.308       .  A
O405        C418   1.272       .  A
C406        O411   1.289       .  A
O410        C412   1.261       .  A
C412        C561   1.462       .  S
O413        C418   1.282       .  A
O414        C416   1.253       .  A
C415        O417   1.238       .  A
C416        C613   1.467       .  S
C418        C528   1.469       .  S
Fe419       O435   2.038       .  S
Fe419       O425   2.098       .  S
Fe419       O432   2.118       .  S
Fe419       O424   2.015       .  S
Fe419       O430   1.930       .  S
Fe420       O423   1.974       .  S
Fe420       O427   2.081       .  S
Fe420       O431   2.038       .  S
Fe420       O436   2.153       .  S
Fe420       O430   1.963       .  S
Fe421       O439   2.187       .  S
Fe421       O426   2.006       .  S
Fe421       O433   2.072       .  S
Fe421       O422   2.116       .  S
Fe421       O430   1.897       .  S
O422        C429   1.289       .  A
O423        C437   1.253       .  A
O424        C429   1.264       .  A
O425        C428   1.277       .  A
O426        C438   1.238       .  A
O427        C440   1.279       .  A
C428        O433   1.267       .  A
O431        C434   1.272       .  A
O432        C434   1.282       .  A
C434       C1204   1.469       .  S
O435        C440   1.261       .  A
O436        C438   1.270       .  A
C437        O439   1.308       .  A
C437        C592   1.467   1_554  S
C440        C538   1.462   1_554  S
Fe441       O457   2.118       .  S
Fe441       O447   2.015       .  S
Fe441       O454   2.038       .  S
Fe441       O446   2.098       .  S
Fe441       O452   1.930       .  S
Fe442       O445   2.153       .  S
Fe442       O449   2.038       .  S
Fe442       O453   2.081       .  S
Fe442       O458   1.974       .  S
Fe442       O452   1.963       .  S
Fe443       O461   2.006       .  S
Fe443       O448   2.187       .  S
Fe443       O455   2.116       .  S
Fe443       O444   2.072       .  S
Fe443       O452   1.897       .  S
O444        C451   1.267       .  A
O445        C459   1.270       .  A
O446        C451   1.277       .  A
O447        C450   1.264       .  A
O448        C460   1.308       .  A
O449        C462   1.272       .  A
C450        O455   1.289       .  A
C450        C506   1.462       .  S
C451        C525   1.483       .  S
O453        C456   1.279       .  A
O454        C456   1.261       .  A
C456        C671   1.462       .  S
O457        C462   1.282       .  A
O458        C460   1.253       .  A
C459        O461   1.238       .  A
C459        C517   1.484       .  S
C460        C657   1.467       .  S
C462       C1078   1.469   1_455  S
Fe463       O476   2.119   1_545  S
Fe463       O468   2.015   1_545  S
Fe463       O474   1.930   1_545  S
Fe464       O467   1.974       .  S
Fe464       O471   2.081       .  S
Fe464       O475   2.038       .  S
Fe464       O480   2.152       .  S
Fe464       O474   1.963       .  S
Fe465       O483   2.187       .  S
Fe465       O470   2.006       .  S
Fe465       O477   2.072       .  S
Fe465       O466   2.116       .  S
Fe465       O474   1.897       .  S
O466        C473   1.289       .  A
O467        C481   1.253       .  A
O468        C473   1.264       .  A
O469        C472   1.278       .  A
O470        C482   1.238       .  A
O471        C484   1.279       .  A
C472        C504   1.483       .  S
C473        C522   1.462       .  S
O475        C478   1.272       .  A
O476        C478   1.282       .  A
O480        C482   1.270       .  A
C481        O483   1.308       .  A
C481        C636   1.467   1_554  S
C482        C494   1.483       .  S
Fe485       O501   2.038       .  S
Fe485       O491   2.098       .  S
Fe485       O498   2.118       .  S
Fe485       O490   2.015       .  S
Fe485       O496   1.930       .  S
Fe486       O489   1.974       .  S
Fe486       O493   2.081       .  S
Fe486       O497   2.038       .  S
Fe486       O502   2.152       .  S
Fe486       O496   1.963       .  S
Fe487       O505   2.187       .  S
Fe487       O492   2.006       .  S
Fe487       O499   2.072       .  S
Fe487       O488   2.116       .  S
Fe487       O496   1.897       .  S
O488        C495   1.289       .  A
O489        C503   1.253       .  A
O490        C495   1.264       .  A
O491        C494   1.278       .  A
O492        C504   1.238       .  A
O493        C506   1.279       .  A
C494        O499   1.266       .  A
C495        C632   1.462   1_554  S
O497        C500   1.272       .  A
O498        C500   1.282       .  A
C500       C1138   1.469   1_455  S
O501        C506   1.261       .  A
O502        C504   1.270       .  A
C503        O505   1.308       .  A
C503        C526   1.467       .  S
Fe507       O513   2.015       .  S
Fe507       O520   2.038       .  S
Fe507       O512   2.098       .  S
Fe508       O511   2.152       .  S
Fe508       O515   2.038       .  S
Fe508       O519   2.081       .  S
Fe508       O524   1.974       .  S
Fe508       O518   1.963       .  S
Fe509       O527   2.006       .  S
Fe509       O514   2.187       .  S
Fe509       O521   2.116       .  S
Fe509       O518   1.897       .  S
O510        C517   1.267       .  A
O511        C525   1.270       .  A
O512        C517   1.277       .  A
O514        C526   1.308       .  A
O515        C528   1.272       .  A
C516        O521   1.289       .  A
O520        C522   1.261       .  A
O523        C528   1.282       .  A
O524        C526   1.253       .  A
C525        O527   1.238       .  A
Fe529       O545   2.118       .  S
Fe529       O535   2.015       .  S
Fe529       O542   2.038       .  S
Fe529       O534   2.098       .  S
Fe529       O540   1.930       .  S
Fe530       O533   2.152       .  S
Fe530       O537   2.038       .  S
Fe530       O541   2.081       .  S
Fe530       O546   1.974       .  S
Fe530       O540   1.963       .  S
Fe531       O549   2.006       .  S
Fe531       O536   2.187       .  S
Fe531       O543   2.116       .  S
Fe531       O532   2.072       .  S
Fe531       O540   1.897       .  S
O532        C539   1.266       .  A
O533        C547   1.270       .  A
O534        C539   1.278       .  A
O535        C538   1.264       .  A
O536        C548   1.308       .  A
O537        C550   1.272       .  A
C538        O543   1.289       .  A
C539        C591   1.483       .  S
O541        C544   1.279       .  A
O542        C544   1.261       .  A
C544        C605   1.462       .  S
O545        C550   1.282       .  A
O546        C548   1.253       .  A
C547        O549   1.238       .  A
C547        C583   1.483       .  S
C548        C569   1.467       .  S
C550       C1342   1.469       .  S
Fe551       O564   2.118   1_545  S
Fe551       O556   2.015   1_545  S
Fe551       O562   1.930   1_545  S
Fe552       O555   1.974       .  S
Fe552       O559   2.081       .  S
Fe552       O563   2.038       .  S
Fe552       O568   2.152       .  S
Fe552       O562   1.963       .  S
Fe553       O571   2.187       .  S
Fe553       O558   2.006       .  S
Fe553       O565   2.072       .  S
Fe553       O554   2.116       .  S
Fe553       O562   1.897       .  S
O554        C561   1.289       .  A
O555        C569   1.253       .  A
O556        C561   1.264       .  A
O557        C560   1.277       .  A
O558        C570   1.238       .  A
O559        C572   1.279       .  A
C560        C614   1.484       .  S
O563        C566   1.272       .  A
O564        C566   1.282       .  A
C566        C654   1.469       .  S
O568        C570   1.270       .  A
C569        O571   1.308       .  A
C570        C604   1.483       .  S
Fe573       O579   2.015       .  S
Fe573       O586   2.038       .  S
Fe573       O578   2.098       .  S
Fe574       O577   2.152       .  S
Fe574       O581   2.038       .  S
Fe574       O585   2.081       .  S
Fe574       O590   1.974       .  S
Fe574       O584   1.963       .  S
Fe575       O593   2.006       .  S
Fe575       O580   2.187       .  S
Fe575       O587   2.116       .  S
Fe575       O584   1.897       .  S
O576        C583   1.266       .  A
O577        C591   1.270       .  A
O578        C583   1.278       .  A
O580        C592   1.308       .  A
O581        C594   1.272       .  A
C582        O587   1.289       .  A
O586        C588   1.261       .  A
O589        C594   1.282       .  A
O590        C592   1.253       .  A
C591        O593   1.238       .  A
C594        C704   1.469       .  S
Fe595       O611   2.038       .  S
Fe595       O601   2.098       .  S
Fe595       O608   2.118       .  S
Fe595       O600   2.015       .  S
Fe595       O606   1.930       .  S
Fe596       O599   1.974       .  S
Fe596       O603   2.081       .  S
Fe596       O607   2.038       .  S
Fe596       O612   2.153       .  S
Fe596       O606   1.963       .  S
Fe597       O615   2.187       .  S
Fe597       O602   2.006       .  S
Fe597       O609   2.072       .  S
Fe597       O598   2.116       .  S
Fe597       O606   1.897       .  S
O598        C605   1.289       .  A
O599        C613   1.253       .  A
O600        C605   1.264       .  A
O601        C604   1.277       .  A
O602        C614   1.238       .  A
O603        C616   1.279       .  A
C604        O609   1.267       .  A
O607        C610   1.272       .  A
O608        C610   1.282       .  A
C610       C1380   1.469       .  S
O611        C616   1.261       .  A
O612        C614   1.270       .  A
C613        O615   1.308       .  A
Fe617       O633   2.118       .  S
Fe617       O623   2.015       .  S
Fe617       O630   2.038       .  S
Fe617       O622   2.098       .  S
Fe617       O628   1.930       .  S
Fe618       O621   2.153       .  S
Fe618       O625   2.038       .  S
Fe618       O629   2.081       .  S
Fe618       O634   1.974       .  S
Fe618       O628   1.963       .  S
Fe619       O637   2.006       .  S
Fe619       O624   2.187       .  S
Fe619       O631   2.116       .  S
Fe619       O620   2.072       .  S
Fe619       O628   1.897       .  S
O620        C627   1.267       .  A
O621        C635   1.270       .  A
O622        C627   1.277       .  A
O623        C626   1.264       .  A
O624        C636   1.308       .  A
O625        C638   1.272       .  A
C626        O631   1.289       .  A
C626        C682   1.462       .  S
C627        C701   1.483       .  S
O629        C632   1.279       .  A
O630        C632   1.261       .  A
O633        C638   1.282       .  A
O634        C636   1.253       .  A
C635        O637   1.238       .  A
C635        C693   1.484       .  S
C638       C1254   1.469   1_455  S
Fe639       O652   2.119   1_545  S
Fe639       O644   2.015   1_545  S
Fe639       O650   1.930   1_545  S
Fe640       O643   1.974       .  S
Fe640       O647   2.081       .  S
Fe640       O651   2.038       .  S
Fe640       O656   2.152       .  S
Fe640       O650   1.963       .  S
Fe641       O659   2.187       .  S
Fe641       O646   2.006       .  S
Fe641       O653   2.072       .  S
Fe641       O642   2.116       .  S
Fe641       O650   1.897       .  S
O642        C649   1.289       .  A
O643        C657   1.253       .  A
O644        C649   1.264       .  A
O645        C648   1.278       .  A
O646        C658   1.238       .  A
O647        C660   1.279       .  A
C648        C680   1.483       .  S
C649        C698   1.462       .  S
O651        C654   1.272       .  A
O652        C654   1.282       .  A
O656        C658   1.270       .  A
C657        O659   1.308       .  A
C658        C670   1.483       .  S
Fe661       O677   2.038       .  S
Fe661       O667   2.098       .  S
Fe661       O674   2.118       .  S
Fe661       O666   2.015       .  S
Fe661       O672   1.930       .  S
Fe662       O665   1.974       .  S
Fe662       O669   2.081       .  S
Fe662       O673   2.038       .  S
Fe662       O678   2.152       .  S
Fe662       O672   1.963       .  S
Fe663       O681   2.187       .  S
Fe663       O668   2.006       .  S
Fe663       O675   2.072       .  S
Fe663       O664   2.116       .  S
Fe663       O672   1.897       .  S
O664        C671   1.289       .  A
O665        C679   1.253       .  A
O666        C671   1.264       .  A
O667        C670   1.278       .  A
O668        C680   1.238       .  A
O669        C682   1.279       .  A
C670        O675   1.266       .  A
O673        C676   1.272       .  A
O674        C676   1.282       .  A
C676       C1314   1.469   1_455  S
O677        C682   1.261       .  A
O678        C680   1.270       .  A
C679        O681   1.308       .  A
C679        C702   1.467       .  S
Fe683       O689   2.015       .  S
Fe683       O696   2.038       .  S
Fe683       O688   2.098       .  S
Fe684       O687   2.152       .  S
Fe684       O691   2.038       .  S
Fe684       O695   2.081       .  S
Fe684       O700   1.974       .  S
Fe684       O694   1.963       .  S
Fe685       O703   2.006       .  S
Fe685       O690   2.187       .  S
Fe685       O697   2.116       .  S
Fe685       O694   1.897       .  S
O686        C693   1.267       .  A
O687        C701   1.270       .  A
O688        C693   1.277       .  A
O690        C702   1.308       .  A
O691        C704   1.272       .  A
C692        O697   1.289       .  A
O696        C698   1.261       .  A
O699        C704   1.282       .  A
O700        C702   1.253       .  A
C701        O703   1.238       .  A
Fe705       O721   2.118       .  S
Fe705       O711   2.015       .  S
Fe705       O718   2.038       .  S
Fe705       O710   2.098       .  S
Fe705       O716   1.930       .  S
Fe706       O709   2.152       .  S
Fe706       O713   2.038       .  S
Fe706       O717   2.081       .  S
Fe706       O722   1.974       .  S
Fe706       O716   1.963       .  S
Fe707       O725   2.006       .  S
Fe707       O712   2.187       .  S
Fe707       O719   2.116       .  S
Fe707       O708   2.072       .  S
Fe707       O716   1.897       .  S
O708        C715   1.266       .  A
O709        C723   1.270       .  A
O710        C715   1.278       .  A
O711        C714   1.264       .  A
O712        C724   1.308       .  A
O713        C726   1.272       .  A
C714        O719   1.289       .  A
C714        C968   1.462       .  S
C715        C767   1.483       .  S
O717        C720   1.279       .  A
O718        C720   1.261       .  A
C720        C781   1.462       .  S
O721        C726   1.282       .  A
O722        C724   1.253       .  A
C723        O725   1.238       .  A
C723        C759   1.483       .  S
C724        C745   1.467       .  S
Fe727      O1095   2.038       .  S
Fe727      O1085   2.098       .  S
Fe727       O740   2.118       .  S
Fe727       O732   2.015       .  S
Fe727       O738   1.930       .  S
Fe728       O731   1.974       .  S
Fe728       O735   2.081       .  S
Fe728       O739   2.038       .  S
Fe728       O744   2.152       .  S
Fe728       O738   1.963       .  S
Fe729       O747   2.187       .  S
Fe729       O734   2.006       .  S
Fe729       O741   2.072       .  S
Fe729       O730   2.116       .  S
Fe729       O738   1.897       .  S
O730        C737   1.289       .  A
O731        C745   1.253       .  A
O732        C737   1.264       .  A
O733      Fe1079   2.098       .  S
O733        C736   1.277       .  A
O734        C746   1.238       .  A
O735        C748   1.279       .  A
C736       O1093   1.267   1_545  A
C736        C790   1.484       .  S
C737        C940   1.462   1_554  S
O739        C742   1.272       .  A
O740        C742   1.282       .  A
O741       C1088   1.267       .  A
C742        C830   1.469       .  S
O743      Fe1079   2.038       .  S
O743       C1100   1.261   1_545  A
O744        C746   1.270       .  A
C745        O747   1.308       .  A
C746        C780   1.483       .  S
C748       O1095   1.261       .  A
C748       C1110   1.462       .  S
Fe749      O1117   2.119       .  S
Fe749       O755   2.015       .  S
Fe749       O762   2.038       .  S
Fe749       O754   2.098       .  S
Fe749      O1112   1.930       .  S
Fe750       O753   2.152       .  S
Fe750       O757   2.038       .  S
Fe750       O761   2.081       .  S
Fe750       O766   1.974       .  S
Fe750       O760   1.963       .  S
Fe751       O769   2.006       .  S
Fe751       O756   2.187       .  S
Fe751       O763   2.116       .  S
Fe751      O1104   2.072   1_545  S
Fe751       O760   1.897       .  S
O752      Fe1103   2.072       .  S
O752        C759   1.266       .  A
O753        C767   1.270       .  A
O754        C759   1.278       .  A
O755       C1110   1.264       .  A
O756        C768   1.308       .  A
O757        C770   1.272       .  A
C758       O1107   1.264       .  A
C758        O763   1.289   1_565  A
C758       C1100   1.462       .  S
O760      Fe1101   1.930   1_545  S
O761       C1116   1.279   1_545  A
O762        C764   1.261       .  A
C764       O1113   1.279       .  A
C764        C913   1.462       .  S
O765      Fe1101   2.119       .  S
O765        C770   1.282   1_565  A
O766        C768   1.253       .  A
C767        O769   1.238       .  A
C768        C965   1.467       .  S
C770        C880   1.469       .  S
Fe771       O787   2.038       .  S
Fe771       O777   2.098       .  S
Fe771       O784   2.118       .  S
Fe771       O776   2.015       .  S
Fe771       O782   1.930       .  S
Fe772       O775   1.974       .  S
Fe772       O779   2.081       .  S
Fe772       O783   2.038       .  S
Fe772       O788   2.153       .  S
Fe772       O782   1.963       .  S
Fe773       O791   2.187       .  S
Fe773       O778   2.006       .  S
Fe773       O785   2.072       .  S
Fe773       O774   2.116       .  S
Fe773       O782   1.897       .  S
O774        C781   1.289       .  A
O775        C789   1.253       .  A
O776        C781   1.264       .  A
O777        C780   1.277       .  A
O778        C790   1.238       .  A
O779        C792   1.279       .  A
C780        O785   1.267       .  A
O783        C786   1.272       .  A
O784        C786   1.282       .  A
O787        C792   1.261       .  A
O788        C790   1.270       .  A
C789        O791   1.308       .  A
C789        C944   1.467   1_554  S
C792        C890   1.462   1_554  S
Fe793       O809   2.118       .  S
Fe793       O799   2.015       .  S
Fe793       O806   2.038       .  S
Fe793       O798   2.098       .  S
Fe793       O804   1.930       .  S
Fe794       O797   2.153       .  S
Fe794       O801   2.038       .  S
Fe794       O805   2.081       .  S
Fe794       O810   1.974       .  S
Fe794       O804   1.963       .  S
Fe795       O813   2.006       .  S
Fe795       O800   2.187       .  S
Fe795       O807   2.116       .  S
Fe795       O796   2.072       .  S
Fe795       O804   1.897       .  S
O796        C803   1.267       .  A
O797        C811   1.270       .  A
O798        C803   1.277       .  A
O799        C802   1.264       .  A
O800        C812   1.308       .  A
O801        C814   1.272       .  A
C802        O807   1.289       .  A
C802        C858   1.462       .  S
C803        C877   1.483       .  S
O805        C808   1.279       .  A
O806        C808   1.261       .  A
C808       C1023   1.462       .  S
O809        C814   1.282       .  A
O810        C812   1.253       .  A
C811        O813   1.238       .  A
C811        C869   1.484       .  S
C812       C1009   1.467       .  S
Fe815      O1183   2.038       .  S
Fe815      O1173   2.098       .  S
Fe815       O828   2.119       .  S
Fe815       O820   2.015       .  S
Fe815       O826   1.930       .  S
Fe816       O819   1.974       .  S
Fe816       O823   2.081       .  S
Fe816       O827   2.038       .  S
Fe816       O832   2.152       .  S
Fe816       O826   1.963       .  S
Fe817       O835   2.187       .  S
Fe817       O822   2.006       .  S
Fe817       O829   2.072       .  S
Fe817       O818   2.116       .  S
Fe817       O826   1.897       .  S
O818        C825   1.289       .  A
O819        C833   1.253       .  A
O820        C825   1.264       .  A
O821      Fe1167   2.098       .  S
O821        C824   1.278       .  A
O822        C834   1.238       .  A
O823        C836   1.279       .  A
C824       O1181   1.266   1_545  A
C824        C856   1.483       .  S
C825        C874   1.462       .  S
O827        C830   1.272       .  A
O828        C830   1.282       .  A
O829       C1176   1.266       .  A
O831      Fe1167   2.038       .  S
O831       C1188   1.261   1_545  A
O832        C834   1.270       .  A
C833        O835   1.308       .  A
C833        C988   1.467   1_554  S
C834        C846   1.483       .  S
C836       O1183   1.261       .  A
C836       C1396   1.462   1_554  S
Fe837       O853   2.038       .  S
Fe837       O843   2.098       .  S
Fe837       O850   2.118       .  S
Fe837       O842   2.015       .  S
Fe837       O848   1.930       .  S
Fe838       O841   1.974       .  S
Fe838       O845   2.081       .  S
Fe838       O849   2.038       .  S
Fe838       O854   2.152       .  S
Fe838       O848   1.963       .  S
Fe839       O857   2.187       .  S
Fe839       O844   2.006       .  S
Fe839       O851   2.072       .  S
Fe839       O840   2.116       .  S
Fe839       O848   1.897       .  S
O840        C847   1.289       .  A
O841        C855   1.253       .  A
O842        C847   1.264       .  A
O843        C846   1.278       .  A
O844        C856   1.238       .  A
O845        C858   1.279       .  A
C846        O851   1.266       .  A
C847        C984   1.462   1_554  S
O849        C852   1.272       .  A
O850        C852   1.282       .  A
O853        C858   1.261       .  A
O854        C856   1.270       .  A
C855        O857   1.308       .  A
C855        C878   1.467       .  S
Fe859      O1227   2.118       .  S
Fe859       O865   2.015       .  S
Fe859       O872   2.038       .  S
Fe859       O864   2.098       .  S
Fe859      O1222   1.930       .  S
Fe860       O863   2.152       .  S
Fe860       O867   2.038       .  S
Fe860       O871   2.081       .  S
Fe860       O876   1.974       .  S
Fe860       O870   1.963       .  S
Fe861       O879   2.006       .  S
Fe861       O866   2.187       .  S
Fe861       O873   2.116       .  S
Fe861      O1214   2.072   1_545  S
Fe861       O870   1.897       .  S
O862      Fe1213   2.072       .  S
O862        C869   1.267       .  A
O863        C877   1.270       .  A
O864        C869   1.277       .  A
O865       C1220   1.264       .  A
O866        C878   1.308       .  A
O867        C880   1.272       .  A
C868       O1217   1.264       .  A
C868        O873   1.289   1_565  A
C868       C1364   1.462       .  S
O870      Fe1211   1.930   1_545  S
O871       C1226   1.279   1_545  A
O872        C874   1.261       .  A
C874       O1223   1.279       .  A
O875      Fe1211   2.118       .  S
O875        C880   1.282   1_565  A
O876        C878   1.253       .  A
C877        O879   1.238       .  A
Fe881       O897   2.118       .  S
Fe881       O887   2.015       .  S
Fe881       O894   2.038       .  S
Fe881       O886   2.098       .  S
Fe881       O892   1.930       .  S
Fe882       O885   2.152       .  S
Fe882       O889   2.038       .  S
Fe882       O893   2.081       .  S
Fe882       O898   1.974       .  S
Fe882       O892   1.963       .  S
Fe883       O901   2.006       .  S
Fe883       O888   2.187       .  S
Fe883       O895   2.116       .  S
Fe883       O884   2.072       .  S
Fe883       O892   1.897       .  S
O884        C891   1.266       .  A
O885        C899   1.270       .  A
O886        C891   1.278       .  A
O887        C890   1.264       .  A
O888        C900   1.308       .  A
O889        C902   1.272       .  A
C890        O895   1.289       .  A
C891        C943   1.483       .  S
O893        C896   1.279       .  A
O894        C896   1.261       .  A
C896        C957   1.462       .  S
O897        C902   1.282       .  A
O898        C900   1.253       .  A
C899        O901   1.238       .  A
C899        C935   1.483       .  S
C900        C921   1.467       .  S
Fe903      O1271   2.038       .  S
Fe903      O1261   2.098       .  S
Fe903       O916   2.118       .  S
Fe903       O908   2.015       .  S
Fe903       O914   1.930       .  S
Fe904       O907   1.974       .  S
Fe904       O911   2.081       .  S
Fe904       O915   2.038       .  S
Fe904       O920   2.152       .  S
Fe904       O914   1.963       .  S
Fe905       O923   2.187       .  S
Fe905       O910   2.006       .  S
Fe905       O917   2.072       .  S
Fe905       O906   2.116       .  S
Fe905       O914   1.897       .  S
O906        C913   1.289       .  A
O907        C921   1.253       .  A
O908        C913   1.264       .  A
O909      Fe1255   2.098       .  S
O909        C912   1.277       .  A
O910        C922   1.238       .  A
O911        C924   1.279       .  A
C912       O1269   1.267   1_545  A
C912        C966   1.484       .  S
O915        C918   1.272       .  A
O916        C918   1.282       .  A
O917       C1264   1.267       .  A
C918       C1006   1.469       .  S
O919      Fe1255   2.038       .  S
O919       C1276   1.261   1_545  A
O920        C922   1.270       .  A
C921        O923   1.308       .  A
C922        C956   1.483       .  S
C924       O1271   1.261       .  A
C924       C1286   1.462       .  S
Fe925      O1293   2.119       .  S
Fe925       O931   2.015       .  S
Fe925       O938   2.038       .  S
Fe925       O930   2.098       .  S
Fe925      O1288   1.930       .  S
Fe926       O929   2.152       .  S
Fe926       O933   2.038       .  S
Fe926       O937   2.081       .  S
Fe926       O942   1.974       .  S
Fe926       O936   1.963       .  S
Fe927       O945   2.006       .  S
Fe927       O932   2.187       .  S
Fe927       O939   2.116       .  S
Fe927      O1280   2.072   1_545  S
Fe927       O936   1.897       .  S
O928      Fe1279   2.072       .  S
O928        C935   1.266       .  A
O929        C943   1.270       .  A
O930        C935   1.278       .  A
O931       C1286   1.264       .  A
O932        C944   1.308       .  A
O933        C946   1.272       .  A
C934       O1283   1.264       .  A
C934        O939   1.289   1_565  A
C934       C1276   1.462       .  S
O936      Fe1277   1.930   1_545  S
O937       C1292   1.279   1_545  A
O938        C940   1.261       .  A
C940       O1289   1.279       .  A
O941      Fe1277   2.119       .  S
O941        C946   1.282   1_565  A
O942        C944   1.253       .  A
C943        O945   1.238       .  A
C946       C1056   1.469       .  S
Fe947       O963   2.038       .  S
Fe947       O953   2.098       .  S
Fe947       O960   2.118       .  S
Fe947       O952   2.015       .  S
Fe947       O958   1.930       .  S
Fe948       O951   1.974       .  S
Fe948       O955   2.081       .  S
Fe948       O959   2.038       .  S
Fe948       O964   2.153       .  S
Fe948       O958   1.963       .  S
Fe949       O967   2.187       .  S
Fe949       O954   2.006       .  S
Fe949       O961   2.072       .  S
Fe949       O950   2.116       .  S
Fe949       O958   1.897       .  S
O950        C957   1.289       .  A
O951        C965   1.253       .  A
O952        C957   1.264       .  A
O953        C956   1.277       .  A
O954        C966   1.238       .  A
O955        C968   1.279       .  A
C956        O961   1.267       .  A
O959        C962   1.272       .  A
O960        C962   1.282       .  A
O963        C968   1.261       .  A
O964        C966   1.270       .  A
C965        O967   1.308       .  A
Fe969       O985   2.118       .  S
Fe969       O975   2.015       .  S
Fe969       O982   2.038       .  S
Fe969       O974   2.098       .  S
Fe969       O980   1.930       .  S
Fe970       O973   2.153       .  S
Fe970       O977   2.038       .  S
Fe970       O981   2.081       .  S
Fe970       O986   1.974       .  S
Fe970       O980   1.963       .  S
Fe971       O989   2.006       .  S
Fe971       O976   2.187       .  S
Fe971       O983   2.116       .  S
Fe971       O972   2.072       .  S
Fe971       O980   1.897       .  S
O972        C979   1.267       .  A
O973        C987   1.270       .  A
O974        C979   1.277       .  A
O975        C978   1.264       .  A
O976        C988   1.308       .  A
O977        C990   1.272       .  A
C978        O983   1.289       .  A
C978       C1034   1.462       .  S
C979       C1053   1.483       .  S
O981        C984   1.279       .  A
O982        C984   1.261       .  A
O985        C990   1.282       .  A
O986        C988   1.253       .  A
C987        O989   1.238       .  A
C987       C1045   1.484       .  S
Fe991      O1359   2.038       .  S
Fe991      O1349   2.098       .  S
Fe991      O1004   2.119       .  S
Fe991       O996   2.015       .  S
Fe991      O1002   1.930       .  S
Fe992       O995   1.974       .  S
Fe992       O999   2.081       .  S
Fe992      O1003   2.038       .  S
Fe992      O1008   2.152       .  S
Fe992      O1002   1.963       .  S
Fe993      O1011   2.187       .  S
Fe993       O998   2.006       .  S
Fe993      O1005   2.072       .  S
Fe993       O994   2.116       .  S
Fe993      O1002   1.897       .  S
O994       C1001   1.289       .  A
O995       C1009   1.253       .  A
O996       C1001   1.264       .  A
O997      Fe1343   2.098       .  S
O997       C1000   1.278       .  A
O998       C1010   1.238       .  A
O999       C1012   1.279       .  A
C1000      O1357   1.266   1_545  A
C1000      C1032   1.483       .  S
C1001      C1050   1.462       .  S
O1003      C1006   1.272       .  A
O1004      C1006   1.282       .  A
O1005      C1352   1.266       .  A
O1007     Fe1343   2.038       .  S
O1007      C1364   1.261   1_545  A
O1008      C1010   1.270       .  A
C1009      O1011   1.308       .  A
C1010      C1022   1.483       .  S
C1012      O1359   1.261       .  A
C1012      C1220   1.462       .  S
Fe1013     O1029   2.038       .  S
Fe1013     O1019   2.098       .  S
Fe1013     O1026   2.118       .  S
Fe1013     O1018   2.015       .  S
Fe1013     O1024   1.930       .  S
Fe1014     O1017   1.974       .  S
Fe1014     O1021   2.081       .  S
Fe1014     O1025   2.038       .  S
Fe1014     O1030   2.152       .  S
Fe1014     O1024   1.963       .  S
Fe1015     O1033   2.187       .  S
Fe1015     O1020   2.006       .  S
Fe1015     O1027   2.072       .  S
Fe1015     O1016   2.116       .  S
Fe1015     O1024   1.897       .  S
O1016      C1023   1.289       .  A
O1017      C1031   1.253       .  A
O1018      C1023   1.264       .  A
O1019      C1022   1.278       .  A
O1020      C1032   1.238       .  A
O1021      C1034   1.279       .  A
C1022      O1027   1.266       .  A
O1025      C1028   1.272       .  A
O1026      C1028   1.282       .  A
O1029      C1034   1.261       .  A
O1030      C1032   1.270       .  A
C1031      O1033   1.308       .  A
C1031      C1054   1.467       .  S
Fe1035     O1403   2.118       .  S
Fe1035     O1041   2.015       .  S
Fe1035     O1048   2.038       .  S
Fe1035     O1040   2.098       .  S
Fe1035     O1398   1.930       .  S
Fe1036     O1039   2.152       .  S
Fe1036     O1043   2.038       .  S
Fe1036     O1047   2.081       .  S
Fe1036     O1052   1.974       .  S
Fe1036     O1046   1.963       .  S
Fe1037     O1055   2.006       .  S
Fe1037     O1042   2.187       .  S
Fe1037     O1049   2.116       .  S
Fe1037     O1390   2.072   1_545  S
Fe1037     O1046   1.897       .  S
O1038     Fe1389   2.072       .  S
O1038      C1045   1.267       .  A
O1039      C1053   1.270       .  A
O1040      C1045   1.277       .  A
O1041      C1396   1.264       .  A
O1042      C1054   1.308       .  A
O1043      C1056   1.272       .  A
C1044      O1393   1.264       .  A
C1044      O1049   1.289   1_565  A
C1044      C1188   1.462   1_556  S
O1046     Fe1387   1.930   1_545  S
O1047      C1402   1.279   1_545  A
O1048      C1050   1.261       .  A
C1050      O1399   1.279       .  A
O1051     Fe1387   2.118       .  S
O1051      C1056   1.282   1_565  A
O1052      C1054   1.253       .  A
C1053      O1055   1.238       .  A
Fe1057     O1073   2.118       .  S
Fe1057     O1063   2.015       .  S
Fe1057     O1070   2.038       .  S
Fe1057     O1062   2.098       .  S
Fe1057     O1068   1.930       .  S
Fe1058     O1061   2.152       .  S
Fe1058     O1065   2.038       .  S
Fe1058     O1069   2.081       .  S
Fe1058     O1074   1.974       .  S
Fe1058     O1068   1.963       .  S
Fe1059     O1077   2.006       .  S
Fe1059     O1064   2.187       .  S
Fe1059     O1071   2.116       .  S
Fe1059     O1060   2.072       .  S
Fe1059     O1068   1.897       .  S
O1060      C1067   1.266       .  A
O1061      C1075   1.270       .  A
O1062      C1067   1.278       .  A
O1063      C1066   1.264       .  A
O1064      C1076   1.308       .  A
O1065      C1078   1.272       .  A
C1066      O1071   1.289       .  A
C1066      C1320   1.462       .  S
C1067      C1119   1.483       .  S
O1069      C1072   1.279       .  A
O1070      C1072   1.261       .  A
C1072      C1133   1.462       .  S
O1073      C1078   1.282       .  A
O1074      C1076   1.253       .  A
C1075      O1077   1.238       .  A
C1075      C1111   1.483       .  S
C1076      C1097   1.467       .  S
Fe1079     O1092   2.118   1_545  S
Fe1079     O1084   2.015   1_545  S
Fe1079     O1090   1.930   1_545  S
Fe1080     O1083   1.974       .  S
Fe1080     O1087   2.081       .  S
Fe1080     O1091   2.038       .  S
Fe1080     O1096   2.152       .  S
Fe1080     O1090   1.963       .  S
Fe1081     O1099   2.187       .  S
Fe1081     O1086   2.006       .  S
Fe1081     O1093   2.072       .  S
Fe1081     O1082   2.116       .  S
Fe1081     O1090   1.897       .  S
O1082      C1089   1.289       .  A
O1083      C1097   1.253       .  A
O1084      C1089   1.264       .  A
O1085      C1088   1.277       .  A
O1086      C1098   1.238       .  A
O1087      C1100   1.279       .  A
C1088      C1142   1.484       .  S
C1089      C1292   1.462   1_554  S
O1091      C1094   1.272       .  A
O1092      C1094   1.282       .  A
C1094      C1182   1.469       .  S
O1096      C1098   1.270       .  A
C1097      O1099   1.308       .  A
C1098      C1132   1.483       .  S
Fe1101     O1107   2.015       .  S
Fe1101     O1114   2.038       .  S
Fe1101     O1106   2.098       .  S
Fe1102     O1105   2.152       .  S
Fe1102     O1109   2.038       .  S
Fe1102     O1113   2.081       .  S
Fe1102     O1118   1.974       .  S
Fe1102     O1112   1.963       .  S
Fe1103     O1121   2.006       .  S
Fe1103     O1108   2.187       .  S
Fe1103     O1115   2.116       .  S
Fe1103     O1112   1.897       .  S
O1104      C1111   1.266       .  A
O1105      C1119   1.270       .  A
O1106      C1111   1.278       .  A
O1108      C1120   1.308       .  A
O1109      C1122   1.272       .  A
C1110      O1115   1.289       .  A
O1114      C1116   1.261       .  A
C1116      C1265   1.462       .  S
O1117      C1122   1.282       .  A
O1118      C1120   1.253       .  A
C1119      O1121   1.238       .  A
C1120      C1317   1.467       .  S
C1122      C1232   1.469       .  S
Fe1123     O1139   2.038       .  S
Fe1123     O1129   2.098       .  S
Fe1123     O1136   2.118       .  S
Fe1123     O1128   2.015       .  S
Fe1123     O1134   1.930       .  S
Fe1124     O1127   1.974       .  S
Fe1124     O1131   2.081       .  S
Fe1124     O1135   2.038       .  S
Fe1124     O1140   2.153       .  S
Fe1124     O1134   1.963       .  S
Fe1125     O1143   2.187       .  S
Fe1125     O1130   2.006       .  S
Fe1125     O1137   2.072       .  S
Fe1125     O1126   2.116       .  S
Fe1125     O1134   1.897       .  S
O1126      C1133   1.289       .  A
O1127      C1141   1.253       .  A
O1128      C1133   1.264       .  A
O1129      C1132   1.277       .  A
O1130      C1142   1.238       .  A
O1131      C1144   1.279       .  A
C1132      O1137   1.267       .  A
O1135      C1138   1.272       .  A
O1136      C1138   1.282       .  A
O1139      C1144   1.261       .  A
O1140      C1142   1.270       .  A
C1141      O1143   1.308       .  A
C1141      C1296   1.467   1_554  S
C1144      C1242   1.462   1_554  S
Fe1145     O1161   2.118       .  S
Fe1145     O1151   2.015       .  S
Fe1145     O1158   2.038       .  S
Fe1145     O1150   2.098       .  S
Fe1145     O1156   1.930       .  S
Fe1146     O1149   2.153       .  S
Fe1146     O1153   2.038       .  S
Fe1146     O1157   2.081       .  S
Fe1146     O1162   1.974       .  S
Fe1146     O1156   1.963       .  S
Fe1147     O1165   2.006       .  S
Fe1147     O1152   2.187       .  S
Fe1147     O1159   2.116       .  S
Fe1147     O1148   2.072       .  S
Fe1147     O1156   1.897       .  S
O1148      C1155   1.267       .  A
O1149      C1163   1.270       .  A
O1150      C1155   1.277       .  A
O1151      C1154   1.264       .  A
O1152      C1164   1.308       .  A
O1153      C1166   1.272       .  A
C1154      O1159   1.289       .  A
C1154      C1210   1.462       .  S
C1155      C1229   1.483       .  S
O1157      C1160   1.279       .  A
O1158      C1160   1.261       .  A
C1160      C1375   1.462       .  S
O1161      C1166   1.282       .  A
O1162      C1164   1.253       .  A
C1163      O1165   1.238       .  A
C1163      C1221   1.484       .  S
C1164      C1361   1.467       .  S
Fe1167     O1180   2.119   1_545  S
Fe1167     O1172   2.015   1_545  S
Fe1167     O1178   1.930   1_545  S
Fe1168     O1171   1.974       .  S
Fe1168     O1175   2.081       .  S
Fe1168     O1179   2.038       .  S
Fe1168     O1184   2.152       .  S
Fe1168     O1178   1.963       .  S
Fe1169     O1187   2.187       .  S
Fe1169     O1174   2.006       .  S
Fe1169     O1181   2.072       .  S
Fe1169     O1170   2.116       .  S
Fe1169     O1178   1.897       .  S
O1170      C1177   1.289       .  A
O1171      C1185   1.253       .  A
O1172      C1177   1.264       .  A
O1173      C1176   1.278       .  A
O1174      C1186   1.238       .  A
O1175      C1188   1.279       .  A
C1176      C1208   1.483       .  S
C1177      C1226   1.462       .  S
O1179      C1182   1.272       .  A
O1180      C1182   1.282       .  A
O1184      C1186   1.270       .  A
C1185      O1187   1.308       .  A
C1185      C1340   1.467   1_554  S
C1186      C1198   1.483       .  S
Fe1189     O1205   2.038       .  S
Fe1189     O1195   2.098       .  S
Fe1189     O1202   2.118       .  S
Fe1189     O1194   2.015       .  S
Fe1189     O1200   1.930       .  S
Fe1190     O1193   1.974       .  S
Fe1190     O1197   2.081       .  S
Fe1190     O1201   2.038       .  S
Fe1190     O1206   2.152       .  S
Fe1190     O1200   1.963       .  S
Fe1191     O1209   2.187       .  S
Fe1191     O1196   2.006       .  S
Fe1191     O1203   2.072       .  S
Fe1191     O1192   2.116       .  S
Fe1191     O1200   1.897       .  S
O1192      C1199   1.289       .  A
O1193      C1207   1.253       .  A
O1194      C1199   1.264       .  A
O1195      C1198   1.278       .  A
O1196      C1208   1.238       .  A
O1197      C1210   1.279       .  A
C1198      O1203   1.266       .  A
C1199      C1336   1.462   1_554  S
O1201      C1204   1.272       .  A
O1202      C1204   1.282       .  A
O1205      C1210   1.261       .  A
O1206      C1208   1.270       .  A
C1207      O1209   1.308       .  A
C1207      C1230   1.467       .  S
Fe1211     O1217   2.015       .  S
Fe1211     O1224   2.038       .  S
Fe1211     O1216   2.098       .  S
Fe1212     O1215   2.152       .  S
Fe1212     O1219   2.038       .  S
Fe1212     O1223   2.081       .  S
Fe1212     O1228   1.974       .  S
Fe1212     O1222   1.963       .  S
Fe1213     O1231   2.006       .  S
Fe1213     O1218   2.187       .  S
Fe1213     O1225   2.116       .  S
Fe1213     O1222   1.897       .  S
O1214      C1221   1.267       .  A
O1215      C1229   1.270       .  A
O1216      C1221   1.277       .  A
O1218      C1230   1.308       .  A
O1219      C1232   1.272       .  A
C1220      O1225   1.289       .  A
O1224      C1226   1.261       .  A
O1227      C1232   1.282       .  A
O1228      C1230   1.253       .  A
C1229      O1231   1.238       .  A
Fe1233     O1249   2.118       .  S
Fe1233     O1239   2.015       .  S
Fe1233     O1246   2.038       .  S
Fe1233     O1238   2.098       .  S
Fe1233     O1244   1.930       .  S
Fe1234     O1237   2.152       .  S
Fe1234     O1241   2.038       .  S
Fe1234     O1245   2.081       .  S
Fe1234     O1250   1.974       .  S
Fe1234     O1244   1.963       .  S
Fe1235     O1253   2.006       .  S
Fe1235     O1240   2.187       .  S
Fe1235     O1247   2.116       .  S
Fe1235     O1236   2.072       .  S
Fe1235     O1244   1.897       .  S
O1236      C1243   1.266       .  A
O1237      C1251   1.270       .  A
O1238      C1243   1.278       .  A
O1239      C1242   1.264       .  A
O1240      C1252   1.308       .  A
O1241      C1254   1.272       .  A
C1242      O1247   1.289       .  A
C1243      C1295   1.483       .  S
O1245      C1248   1.279       .  A
O1246      C1248   1.261       .  A
C1248      C1309   1.462       .  S
O1249      C1254   1.282       .  A
O1250      C1252   1.253       .  A
C1251      O1253   1.238       .  A
C1251      C1287   1.483       .  S
C1252      C1273   1.467       .  S
Fe1255     O1268   2.118   1_545  S
Fe1255     O1260   2.015   1_545  S
Fe1255     O1266   1.930   1_545  S
Fe1256     O1259   1.974       .  S
Fe1256     O1263   2.081       .  S
Fe1256     O1267   2.038       .  S
Fe1256     O1272   2.152       .  S
Fe1256     O1266   1.963       .  S
Fe1257     O1275   2.187       .  S
Fe1257     O1262   2.006       .  S
Fe1257     O1269   2.072       .  S
Fe1257     O1258   2.116       .  S
Fe1257     O1266   1.897       .  S
O1258      C1265   1.289       .  A
O1259      C1273   1.253       .  A
O1260      C1265   1.264       .  A
O1261      C1264   1.277       .  A
O1262      C1274   1.238       .  A
O1263      C1276   1.279       .  A
C1264      C1318   1.484       .  S
O1267      C1270   1.272       .  A
O1268      C1270   1.282       .  A
C1270      C1358   1.469       .  S
O1272      C1274   1.270       .  A
C1273      O1275   1.308       .  A
C1274      C1308   1.483       .  S
Fe1277     O1283   2.015       .  S
Fe1277     O1290   2.038       .  S
Fe1277     O1282   2.098       .  S
Fe1278     O1281   2.152       .  S
Fe1278     O1285   2.038       .  S
Fe1278     O1289   2.081       .  S
Fe1278     O1294   1.974       .  S
Fe1278     O1288   1.963       .  S
Fe1279     O1297   2.006       .  S
Fe1279     O1284   2.187       .  S
Fe1279     O1291   2.116       .  S
Fe1279     O1288   1.897       .  S
O1280      C1287   1.266       .  A
O1281      C1295   1.270       .  A
O1282      C1287   1.278       .  A
O1284      C1296   1.308       .  A
O1285      C1298   1.272       .  A
C1286      O1291   1.289       .  A
O1290      C1292   1.261       .  A
O1293      C1298   1.282       .  A
O1294      C1296   1.253       .  A
C1295      O1297   1.238       .  A
C1298      C1408   1.469       .  S
Fe1299     O1315   2.038       .  S
Fe1299     O1305   2.098       .  S
Fe1299     O1312   2.118       .  S
Fe1299     O1304   2.015       .  S
Fe1299     O1310   1.930       .  S
Fe1300     O1303   1.974       .  S
Fe1300     O1307   2.081       .  S
Fe1300     O1311   2.038       .  S
Fe1300     O1316   2.153       .  S
Fe1300     O1310   1.963       .  S
Fe1301     O1319   2.187       .  S
Fe1301     O1306   2.006       .  S
Fe1301     O1313   2.072       .  S
Fe1301     O1302   2.116       .  S
Fe1301     O1310   1.897       .  S
O1302      C1309   1.289       .  A
O1303      C1317   1.253       .  A
O1304      C1309   1.264       .  A
O1305      C1308   1.277       .  A
O1306      C1318   1.238       .  A
O1307      C1320   1.279       .  A
C1308      O1313   1.267       .  A
O1311      C1314   1.272       .  A
O1312      C1314   1.282       .  A
O1315      C1320   1.261       .  A
O1316      C1318   1.270       .  A
C1317      O1319   1.308       .  A
Fe1321     O1337   2.118       .  S
Fe1321     O1327   2.015       .  S
Fe1321     O1334   2.038       .  S
Fe1321     O1326   2.098       .  S
Fe1321     O1332   1.930       .  S
Fe1322     O1325   2.153       .  S
Fe1322     O1329   2.038       .  S
Fe1322     O1333   2.081       .  S
Fe1322     O1338   1.974       .  S
Fe1322     O1332   1.963       .  S
Fe1323     O1341   2.006       .  S
Fe1323     O1328   2.187       .  S
Fe1323     O1335   2.116       .  S
Fe1323     O1324   2.072       .  S
Fe1323     O1332   1.897       .  S
O1324      C1331   1.267       .  A
O1325      C1339   1.270       .  A
O1326      C1331   1.277       .  A
O1327      C1330   1.264       .  A
O1328      C1340   1.308       .  A
O1329      C1342   1.272       .  A
C1330      O1335   1.289       .  A
C1330      C1386   1.462       .  S
C1331      C1405   1.483       .  S
O1333      C1336   1.279       .  A
O1334      C1336   1.261       .  A
O1337      C1342   1.282       .  A
O1338      C1340   1.253       .  A
C1339      O1341   1.238       .  A
C1339      C1397   1.484       .  S
Fe1343     O1356   2.119   1_545  S
Fe1343     O1348   2.015   1_545  S
Fe1343     O1354   1.930   1_545  S
Fe1344     O1347   1.974       .  S
Fe1344     O1351   2.081       .  S
Fe1344     O1355   2.038       .  S
Fe1344     O1360   2.152       .  S
Fe1344     O1354   1.963       .  S
Fe1345     O1363   2.187       .  S
Fe1345     O1350   2.006       .  S
Fe1345     O1357   2.072       .  S
Fe1345     O1346   2.116       .  S
Fe1345     O1354   1.897       .  S
O1346      C1353   1.289       .  A
O1347      C1361   1.253       .  A
O1348      C1353   1.264       .  A
O1349      C1352   1.278       .  A
O1350      C1362   1.238       .  A
O1351      C1364   1.279       .  A
C1352      C1384   1.483       .  S
C1353      C1402   1.462       .  S
O1355      C1358   1.272       .  A
O1356      C1358   1.282       .  A
O1360      C1362   1.270       .  A
C1361      O1363   1.308       .  A
C1362      C1374   1.483       .  S
Fe1365     O1381   2.038       .  S
Fe1365     O1371   2.098       .  S
Fe1365     O1378   2.118       .  S
Fe1365     O1370   2.015       .  S
Fe1365     O1376   1.930       .  S
Fe1366     O1369   1.974       .  S
Fe1366     O1373   2.081       .  S
Fe1366     O1377   2.038       .  S
Fe1366     O1382   2.152       .  S
Fe1366     O1376   1.963       .  S
Fe1367     O1385   2.187       .  S
Fe1367     O1372   2.006       .  S
Fe1367     O1379   2.072       .  S
Fe1367     O1368   2.116       .  S
Fe1367     O1376   1.897       .  S
O1368      C1375   1.289       .  A
O1369      C1383   1.253       .  A
O1370      C1375   1.264       .  A
O1371      C1374   1.278       .  A
O1372      C1384   1.238       .  A
O1373      C1386   1.279       .  A
C1374      O1379   1.266       .  A
O1377      C1380   1.272       .  A
O1378      C1380   1.282       .  A
O1381      C1386   1.261       .  A
O1382      C1384   1.270       .  A
C1383      O1385   1.308       .  A
C1383      C1406   1.467       .  S
Fe1387     O1393   2.015       .  S
Fe1387     O1400   2.038       .  S
Fe1387     O1392   2.098       .  S
Fe1388     O1391   2.152       .  S
Fe1388     O1395   2.038       .  S
Fe1388     O1399   2.081       .  S
Fe1388     O1404   1.974       .  S
Fe1388     O1398   1.963       .  S
Fe1389     O1407   2.006       .  S
Fe1389     O1394   2.187       .  S
Fe1389     O1401   2.116       .  S
Fe1389     O1398   1.897       .  S
O1390      C1397   1.267       .  A
O1391      C1405   1.270       .  A
O1392      C1397   1.277       .  A
O1394      C1406   1.308       .  A
O1395      C1408   1.272       .  A
C1396      O1401   1.289       .  A
O1400      C1402   1.261       .  A
O1403      C1408   1.282       .  A
O1404      C1406   1.253       .  A
C1405      O1407   1.238       .  A
