geometry optimzed in LAMMPS
_audit_creation_date              2020-12-01 
_audit_creation_method            'lammps2cif' 
_symmetry_space_group_name_H-M    'P1' 
_symmetry_Int_Tables_number       1 
_symmetry_cell_setting            triclinic 
loop_ 
_symmetry_equiv_pos_as_xyz 
  x,y,z 
_cell_length_a                    36.66671997 
_cell_length_b                    27.949770015146097 
_cell_length_c                    36.92379843356029 
_cell_angle_alpha                 90.00454249268783 
_cell_angle_beta                  109.76521401769368 
_cell_angle_gamma                 90.00496987066566 
loop_ 
_atom_site_label 
_atom_site_type_symbol 
_atom_site_fract_x 
_atom_site_fract_y 
_atom_site_fract_z 
_atom_site_charge 
O1          O  0.43353799  0.98486433  0.01107520    -0.80100
C2          C  0.30600132  0.87643552  0.41766296     0.99300
O3          O  0.34012210  0.87134399  0.41611813    -0.69200
O4          O  0.37366096  0.95103072  0.40710745    -0.72800
Al5        Al  0.38949422  0.90359360  0.44541793     1.49000
C6          C  0.37919742  0.99526873  0.41076886     0.94500
O7          O  0.32653959  0.01056681  0.47040508    -0.79000
O8          O  0.37164337  0.90785052  0.04765112    -0.72600
Al9        Al  0.37983539  0.99402698  0.49046429     1.90100
O10         O  0.30912273  0.95285576  0.50133372    -0.71600
O11         O  0.35658486  0.84032988  0.99492518    -0.71500
O12         O  0.30083462  0.89278723  0.44724572    -0.77100
O13         O  0.40810874  0.84817132  0.47850067    -0.75300
O14         O  0.36969948  0.93268128  0.47739050    -1.11500
O15         O  0.44106011  0.93569370  0.46733494    -0.70700
C16         C  0.45399137  0.96879732  0.49253522     1.00100
C17         C  0.30273841  0.99174446  0.48389177     0.96400
Al18       Al  0.33769023  0.90097411  0.49618697     1.55600
O19         O  0.38425275  0.01564291  0.44252604    -0.75300
C20         C  0.38576282  0.82274348  0.49030606     1.00600
C21         C  0.37746838  0.94914500  0.06243845     0.95500
O22         O  0.37834481  0.98572043  0.04227820    -0.80600
O23         O  0.36315532  0.52617178  0.45369953    -0.80100
C24         C  0.45029018  0.63166519  0.08324785     0.99300
O25         O  0.44511772  0.64566825  0.04943120    -0.69200
O26         O  0.46321838  0.56902621  0.02373096    -0.72800
Al27       Al  0.42172443  0.60896973  0.50317266     1.49000
C28         C  0.46282077  0.52863744  0.00966715     0.94500
O29         O  0.40346475  0.48888427  0.05966309    -0.79000
O30         O  0.31778299  0.58256402  0.02073485    -0.72600
Al31       Al  0.38397074  0.51137196  0.00729950     1.90100
O32         O  0.37139601  0.54117824  0.08176728    -0.71600
O33         O  0.36834765  0.66408323  0.03376943    -0.71500
O34         O  0.42310408  0.61007132  0.09056045    -0.77100
O35         O  0.38246450  0.65306004  0.48147215    -0.75300
O36         O  0.39163028  0.57272056  0.02093920    -1.11500
O37         O  0.40690347  0.57971995  0.45330457    -0.70700
C38         C  0.38151681  0.54942450  0.43604836     1.00100
C39         C  0.38825593  0.50151028  0.08430470     0.96400
Al40       Al  0.37131221  0.59809174  0.05385512     1.55600
O41         O  0.43381131  0.50139649  0.00228893    -0.75300
C42         C  0.37447646  0.68072933  0.00425785     1.00600
C43         C  0.30785446  0.53915331  0.01027630     0.95500
O44         O  0.33252190  0.50914733  0.00777553    -0.80600
O45         O  0.07757312  0.98473827  0.23421304    -0.80100
C46         C  0.20520425  0.87647877  0.32764179     0.99300
O47         O  0.17110506  0.87144723  0.32925221    -0.69200
O48         O  0.13761519  0.95117990  0.33823659    -0.72800
Al49       Al  0.12172298  0.90366537  0.29998496     1.49000
C50         C  0.13197316  0.99539324  0.33451612     0.94500
O51         O  0.18454963  0.01059702  0.27478691    -0.79000
O52         O  0.13945267  0.90775114  0.19764148    -0.72600
Al53       Al  0.13126235  0.99399346  0.25478305     1.90100
O54         O  0.20198050  0.95281770  0.24391712    -0.71600
O55         O  0.15451734  0.84030792  0.25042108    -0.71500
O56         O  0.21032636  0.89278180  0.29802504    -0.77100
O57         O  0.10307322  0.84818660  0.26699370    -0.75300
O58         O  0.14144754  0.93267734  0.26792241    -1.11500
O59         O  0.07014450  0.93573207  0.27810164    -0.70700
C60         C  0.05716127  0.96874897  0.25284052     1.00100
C61         C  0.20834283  0.99175816  0.26129577     0.96400
Al62       Al  0.17342262  0.90093682  0.24910212     1.55600
O63         O  0.12684583  0.01569874  0.30271875    -0.75300
C64         C  0.12538667  0.82273263  0.25516942     1.00600
C65         C  0.13364102  0.94902576  0.18282640     0.95500
O66         O  0.13275255  0.98562129  0.20296534    -0.80600
O67         O  0.14808579  0.52621205  0.29229988    -0.80100
C68         C  0.06099550  0.63158421  0.16264595     0.99300
O69         O  0.06614609  0.64559555  0.19645722    -0.69200
O70         O  0.04802103  0.56898817  0.22219958    -0.72800
Al71       Al  0.08952444  0.60894391  0.24274137     1.49000
C72         C  0.04841772  0.52863983  0.23632730     0.94500
O73         O  0.10778046  0.48876441  0.18634278    -0.79000
O74         O  0.19348065  0.58244312  0.22520972    -0.72600
Al75       Al  0.12726576  0.51132995  0.23869813     1.90100
O76         O  0.13985204  0.54102771  0.16420958    -0.71600
O77         O  0.14294940  0.66396742  0.21212748    -0.71500
O78         O  0.08817821  0.60995331  0.15535868    -0.77100
O79         O  0.12877942  0.65306068  0.26441704    -0.75300
O80         O  0.11962043  0.57266153  0.22500918    -1.11500
O81         O  0.10432874  0.57976794  0.29263420    -0.70700
C82         C  0.12970899  0.54949100  0.30992370     1.00100
C83         C  0.12299092  0.50136235  0.16169316     0.96400
Al84       Al  0.13995828  0.59796839  0.19208325     1.55600
O85         O  0.07741917  0.50139042  0.24371647    -0.75300
C86         C  0.13679558  0.68067469  0.24160656     1.00600
C87         C  0.20339224  0.53903868  0.23568688     0.95500
O88         O  0.17871699  0.50906549  0.23822843    -0.80600
O89         O  0.32751524  0.48457717  0.23448793    -0.80100
C90         C  0.45521119  0.37644479  0.32797802     0.99300
O91         O  0.42110084  0.37133024  0.32953805    -0.69200
O92         O  0.38758650  0.45103960  0.33853130    -0.72800
Al93       Al  0.37171560  0.40353979  0.30025969     1.49000
C94         C  0.38193524  0.49525437  0.33482151     0.94500
O95         O  0.43446298  0.51062443  0.27511305    -0.79000
O96         O  0.38956434  0.40775694  0.19795392    -0.72600
Al97       Al  0.38119911  0.49392026  0.25508754     1.90100
O98         O  0.45201184  0.45287201  0.24430953    -0.71600
O99         O  0.40460197  0.34028728  0.25071162    -0.71500
O100        O  0.46035126  0.39280413  0.29838754    -0.77100
O101        O  0.35310445  0.34808465  0.26721358    -0.75300
O102        O  0.39144494  0.43261344  0.26822506    -1.11500
O103        O  0.32011981  0.43557943  0.27839047    -0.70700
C104        C  0.30711449  0.46858641  0.25312628     1.00100
C105        C  0.45830113  0.49183342  0.26165793     0.96400
Al106      Al  0.42348235  0.40094439  0.24944141     1.55600
O107        O  0.37675401  0.51557064  0.30301879    -0.75300
C108        C  0.37543967  0.32268129  0.25537515     1.00600
C109        C  0.38370471  0.44903842  0.18315127     0.95500
O110        O  0.38273265  0.48559896  0.20329038    -0.80600
O111        O  0.39815708  0.02619016  0.29195980    -0.80100
C112        C  0.31099862  0.13158613  0.16238311     0.99300
O113        O  0.31614485  0.14558084  0.19619611    -0.69200
O114        O  0.29805438  0.06887345  0.22183938    -0.72800
Al115      Al  0.33951991  0.10887489  0.24244461     1.49000
C116        C  0.29847810  0.02851693  0.23596310     0.94500
O117        O  0.35786006  0.98884640  0.18600026    -0.79000
O118        O  0.44351077  0.08258296  0.22493123    -0.72600
Al119      Al  0.37734211  0.01134499  0.23835771     1.90100
O120        O  0.38991284  0.04117332  0.16389621    -0.71600
O121        O  0.39292806  0.16405691  0.21191593    -0.71500
O122        O  0.33820263  0.11002610  0.15508385    -0.77100
O123        O  0.37873835  0.15300962  0.26418140    -0.75300
O124        O  0.36965693  0.07268257  0.22470676    -1.11500
O125        O  0.35432190  0.07963404  0.29230365    -0.70700
C126        C  0.37973971  0.04939546  0.30958255     1.00100
C127        C  0.37305447  0.00149998  0.16135468     0.96400
Al128      Al  0.38998433  0.09807772  0.19180829     1.55600
O129        O  0.32750730  0.00131342  0.24337275    -0.75300
C130        C  0.38676340  0.18068646  0.24141643     1.00600
C131        C  0.45344343  0.03917458  0.23537390     0.95500
O132        O  0.42878448  0.00915761  0.23787911    -0.80600
O133        O  0.11293101  0.02625891  0.45330972    -0.80100
C134        C  0.20029118  0.13146754  0.08300637     0.99300
O135        O  0.19513773  0.14546307  0.04919495    -0.69200
O136        O  0.21310608  0.06878115  0.02340938    -0.72800
Al137      Al  0.17167195  0.10883703  0.50290942     1.49000
C138        C  0.21262635  0.02844755  0.00922372     0.94500
O139        O  0.15327271  0.98870222  0.05923593    -0.79000
O140        O  0.06772408  0.08256427  0.02053037    -0.72600
Al141      Al  0.13378060  0.01131937  0.00690304     1.90100
O142        O  0.12134394  0.04104577  0.08146552    -0.71600
O143        O  0.11836278  0.16398388  0.03359618    -0.71500
O144        O  0.17309847  0.10987783  0.09030876    -0.77100
O145        O  0.13249657  0.15305580  0.48128513    -0.75300
O146        O  0.14153821  0.07263509  0.02064032    -1.11500
O147        O  0.15678767  0.07969650  0.45300267    -0.70700
C148        C  0.13135095  0.04948366  0.43569749     1.00100
C149        C  0.13813507  0.00134341  0.08393177     0.96400
Al150      Al  0.12128366  0.09798473  0.05361556     1.55600
O151        O  0.18358210  0.00126415  0.00182614    -0.75300
C152        C  0.12451122  0.18068066  0.00411193     1.00600
C153        C  0.05774365  0.03918394  0.01002109     0.95500
O154        O  0.08235799  0.00916738  0.00742416    -0.80600
O155        O  0.18374583  0.48462284  0.01147924    -0.80100
C156        C  0.05603086  0.37646215  0.41800066     0.99300
O157        O  0.09012762  0.37139997  0.41639646    -0.69200
O158        O  0.12356086  0.45117541  0.40741309    -0.72800
Al159      Al  0.13951028  0.40364833  0.44564401     1.49000
C160        C  0.12924833  0.49538306  0.41115569     0.94500
O161        O  0.07681261  0.51061740  0.47095127    -0.79000
O162        O  0.12177687  0.40770908  0.04802104    -0.72600
Al163      Al  0.13007504  0.49394515  0.49092736     1.90100
O164        O  0.05929913  0.45281005  0.50173605    -0.71600
O165        O  0.10672940  0.34028424  0.99521479    -0.71500
O166        O  0.05092166  0.39277963  0.44761943    -0.77100
O167        O  0.15818268  0.34818141  0.47863234    -0.75300
O168        O  0.11982521  0.43264633  0.47774473    -1.11500
O169        O  0.19110034  0.43573348  0.46748038    -0.70700
C170        C  0.20413000  0.46869596  0.49278778     1.00100
C171        C  0.05299475  0.49178609  0.48441426     0.96400
Al172      Al  0.08783194  0.40091394  0.49654802     1.55600
O173        O  0.13448545  0.51566321  0.44298800    -0.75300
C174        C  0.13587896  0.32272453  0.49047346     1.00600
C175        C  0.12760767  0.44897973  0.06285081     0.95500
O176        O  0.12855987  0.48556676  0.04273312    -0.80600
C177        C  0.13953189  0.27205996  0.49652083    -0.11500
C178        C  0.13125823  0.23093707  0.50044981    -0.13100
C179        C  0.23881809  0.13695325  0.11187048    -0.11500
C180        C  0.27246452  0.13699783  0.13352069    -0.13100
C181        C  0.48983456  0.36586958  0.36037228    -0.11500
C182        C  0.02139049  0.36587753  0.38562371    -0.13100
C183        C  0.37178261  0.27203247  0.24920878    -0.11500
C184        C  0.38004793  0.23093507  0.24517520    -0.13100
C185        C  0.27056827  0.49369299  0.24783967    -0.11500
C186        C  0.24214984  0.51927928  0.24288516    -0.13100
C187        C  0.49222187  0.51418024  0.26210824    -0.11500
C188        C  0.01876144  0.51905369  0.25104596    -0.13100
C189        C  0.13184725  0.52186283  0.37873079    -0.11500
C190        C  0.13375777  0.53744060  0.34892297    -0.13100
C191        C  0.12323313  0.47107020  0.13038374    -0.11500
C192        C  0.12711851  0.45610349  0.10122879    -0.13100
C193        C  0.12176215  0.77205874  0.24915950    -0.11500
C194        C  0.13005473  0.73093559  0.24526173    -0.13100
C195        C  0.12731139  0.03742071  0.39670312    -0.11500
C196        C  0.12929049  0.02185221  0.36691826    -0.13100
C197        C  0.13790976  0.97106752  0.11524904    -0.11500
C198        C  0.13406850  0.95613113  0.14442872    -0.13100
C199        C  0.49220910  0.01945723  0.24257926    -0.11500
C200        C  0.02062334  0.99386707  0.24754203    -0.13100
C201        C  0.26883018  0.01888732  0.25067995    -0.11500
C202        C  0.24229105  0.01402790  0.26174291    -0.13100
C203        C  0.48883176  0.63711162  0.11210316    -0.11500
C204        C  0.02247599  0.63708170  0.13376515    -0.13100
C205        C  0.38801793  0.47123376  0.11562005    -0.11500
C206        C  0.38416342  0.45621709  0.14477203    -0.13100
C207        C  0.37933231  0.52171795  0.36725007    -0.11500
C208        C  0.37743812  0.53732496  0.39705419    -0.13100
C209        C  0.24066712  0.49382986  0.49806933    -0.11500
C210        C  0.26907940  0.51942444  0.00304223    -0.13100
C211        C  0.01907800  0.51410075  0.48399147    -0.11500
C212        C  0.49250530  0.51897617  0.99501476    -0.13100
C213        C  0.23983695  0.86587118  0.36001052    -0.11500
C214        C  0.27139241  0.86584932  0.38525889    -0.13100
C215        C  0.38943839  0.77209482  0.49648776    -0.11500
C216        C  0.38118746  0.73098756  0.50052046    -0.13100
C217        C  0.49054387  0.99390582  0.49786863    -0.11500
C218        C  0.01897232  0.01948861  0.00283619    -0.13100
C219        C  0.24222884  0.01882764  0.99444212    -0.11500
C220        C  0.26875420  0.01397816  0.48336616    -0.13100
C221        C  0.37707772  0.95629541  0.10083672    -0.11500
C222        C  0.37326452  0.97125711  0.13001840    -0.13100
C223        C  0.38377463  0.03729164  0.34855942    -0.11500
C224        C  0.38182663  0.02170004  0.37834310    -0.13100
O225        O  0.43352666  0.98486923  0.51107526    -0.80100
C226        C  0.30600278  0.87644190  0.91766549     0.99300
O227        O  0.34012165  0.87135329  0.91611545    -0.69200
O228        O  0.37365956  0.95104060  0.90710582    -0.72800
Al229      Al  0.38949548  0.90359936  0.94541237     1.49000
C230        C  0.37920338  0.99527693  0.91077063     0.94500
O231        O  0.32655295  0.01057538  0.97041279    -0.79000
O232        O  0.37163050  0.90784694  0.54764852    -0.72600
Al233      Al  0.37984761  0.99402990  0.99046763     1.90100
O234        O  0.30913445  0.95286170  0.00133863    -0.71600
O235        O  0.35657591  0.84032558  0.49492408    -0.71500
O236        O  0.30084007  0.89279181  0.94725063    -0.77100
O237        O  0.40811071  0.84817243  0.97848943    -0.75300
O238        O  0.36970681  0.93268540  0.97739070    -1.11500
O239        O  0.44106328  0.93569582  0.96732653    -0.70700
C240        C  0.45399878  0.96879471  0.99253012     1.00100
C241        C  0.30275259  0.99175373  0.98390107     0.96400
Al242      Al  0.33769980  0.90097863  0.99619011     1.55600
O243        O  0.38426461  0.01564832  0.94253002    -0.75300
C244        C  0.38576725  0.82274542  0.99029903     1.00600
C245        C  0.37745585  0.94914190  0.56243551     0.95500
O246        O  0.37833109  0.98571747  0.54227482    -0.80600
O247        O  0.36314217  0.52617071  0.95369385    -0.80100
C248        C  0.45029465  0.63167075  0.58325125     0.99300
O249        O  0.44511850  0.64567791  0.54943476    -0.69200
O250        O  0.46322803  0.56904495  0.52372931    -0.72800
Al251      Al  0.42172130  0.60896001  0.00317007     1.49000
C252        C  0.46283506  0.52865368  0.50967093     0.94500
O253        O  0.40348063  0.48888472  0.55966818    -0.79000
O254        O  0.31779295  0.58255706  0.52074077    -0.72600
Al255      Al  0.38398566  0.51137393  0.50730458     1.90100
O256        O  0.37140703  0.54117266  0.58177159    -0.71600
O257        O  0.36835063  0.66408049  0.53377878    -0.71500
O258        O  0.42311182  0.61007109  0.59056533    -0.77100
O259        O  0.38246884  0.65305875  0.98146687    -0.75300
O260        O  0.39163974  0.57272248  0.52094431    -1.11500
O261        O  0.40689865  0.57970913  0.95330204    -0.70700
C262        C  0.38150827  0.54941822  0.93604419     1.00100
C263        C  0.38826858  0.50150622  0.58430834     0.96400
Al264      Al  0.37132032  0.59808804  0.55386136     1.55600
O265        O  0.43382825  0.50140795  0.50229509    -0.75300
C266        C  0.37447449  0.68072871  0.50426573     1.00600
C267        C  0.30786698  0.53914606  0.51028063     0.95500
O268        O  0.33253615  0.50914265  0.50777967    -0.80600
O269        O  0.07757231  0.98473234  0.73421442    -0.80100
C270        C  0.20520385  0.87647766  0.82764725     0.99300
O271        O  0.17110478  0.87144580  0.82925748    -0.69200
O272        O  0.13761649  0.95118018  0.83823898    -0.72800
Al273      Al  0.12172331  0.90366338  0.79998943     1.49000
C274        C  0.13197509  0.99539344  0.83451691     0.94500
O275        O  0.18454843  0.01059278  0.77478654    -0.79000
O276        O  0.13945303  0.90774277  0.69764463    -0.72600
Al277      Al  0.13126154  0.99398837  0.75478363     1.90100
O278        O  0.20198009  0.95281109  0.74391943    -0.71600
O279        O  0.15451770  0.84030280  0.75042784    -0.71500
O280        O  0.21032603  0.89277892  0.79802988    -0.77100
O281        O  0.10307359  0.84818259  0.76700060    -0.75300
O282        O  0.14144731  0.93267292  0.76792524    -1.11500
O283        O  0.07014503  0.93572976  0.77810574    -0.70700
C284        C  0.05716132  0.96874477  0.75284338     1.00100
C285        C  0.20834181  0.99175283  0.76129623     0.96400
Al286      Al  0.17342268  0.90093103  0.74910629     1.55600
O287        O  0.12684578  0.01569683  0.80271859    -0.75300
C288        C  0.12538749  0.82272777  0.75517731     1.00600
C289        C  0.13363986  0.94901676  0.68282816     0.95500
O290        O  0.13275126  0.98561305  0.70296626    -0.80600
O291        O  0.14808384  0.52620893  0.79229891    -0.80100
C292        C  0.06099990  0.63158847  0.66264648     0.99300
O293        O  0.06614885  0.64559628  0.69645795    -0.69200
O294        O  0.04801971  0.56898346  0.72219178    -0.72800
Al295      Al  0.08952268  0.60893937  0.74273959     1.49000
C296        C  0.04841563  0.52863565  0.73632065     0.94500
O297        O  0.10778325  0.48876265  0.68634121    -0.79000
O298        O  0.19348232  0.58244079  0.72521310    -0.72600
Al299      Al  0.12726581  0.51132714  0.73869685     1.90100
O300        O  0.13985448  0.54102867  0.66420966    -0.71600
O301        O  0.14295326  0.66396554  0.71213451    -0.71500
O302        O  0.08818278  0.60995731  0.65535954    -0.77100
O303        O  0.12877734  0.65305441  0.76442059    -0.75300
O304        O  0.11962087  0.57265910  0.72500869    -1.11500
O305        O  0.10432235  0.57975980  0.79263046    -0.70700
C306        C  0.12970363  0.54948462  0.80992114     1.00100
C307        C  0.12299492  0.50136185  0.66169276     0.96400
Al308      Al  0.13996122  0.59796833  0.69208573     1.55600
O309        O  0.07741769  0.50138685  0.74371260    -0.75300
C310        C  0.13679724  0.68067025  0.74161351     1.00600
C311        C  0.20339318  0.53903596  0.73568899     0.95500
O312        O  0.17871744  0.50906288  0.73822926    -0.80600
O313        O  0.32751287  0.48457097  0.73448485    -0.80100
C314        C  0.45520707  0.37643855  0.82797664     0.99300
O315        O  0.42109612  0.37132404  0.82953545    -0.69200
O316        O  0.38758308  0.45103423  0.83852796    -0.72800
Al317      Al  0.37171245  0.40353414  0.80025666     1.49000
C318        C  0.38193234  0.49524923  0.83481824     0.94500
O319        O  0.43446066  0.51062006  0.77510831    -0.79000
O320        O  0.38956459  0.40774981  0.69795199    -0.72600
Al321      Al  0.38119682  0.49391439  0.75508389     1.90100
O322        O  0.45201128  0.45286511  0.74430855    -0.71600
O323        O  0.40459995  0.34028109  0.75071009    -0.71500
O324        O  0.46034831  0.39279845  0.79838707    -0.77100
O325        O  0.35310152  0.34807870  0.76721061    -0.75300
O326        O  0.39144276  0.43260762  0.76822237    -1.11500
O327        O  0.32011755  0.43557377  0.77838768    -0.70700
C328        C  0.30711262  0.46858117  0.75312401     1.00100
C329        C  0.45829918  0.49182850  0.76165380     0.96400
Al330      Al  0.42348098  0.40093807  0.74944014     1.55600
O331        O  0.37675200  0.51556554  0.80301557    -0.75300
C332        C  0.37543733  0.32267507  0.75537272     1.00600
C333        C  0.38370516  0.44903088  0.68314873     0.95500
O334        O  0.38273061  0.48559162  0.70328668    -0.80600
O335        O  0.39815736  0.02618457  0.79195978    -0.80100
C336        C  0.31099875  0.13157724  0.66238333     0.99300
O337        O  0.31614583  0.14557428  0.69619603    -0.69200
O338        O  0.29805447  0.06887052  0.72184247    -0.72800
Al339      Al  0.33952121  0.10887037  0.74244539     1.49000
C340        C  0.29847752  0.02851333  0.73596497     0.94500
O341        O  0.35785694  0.98884062  0.68600100    -0.79000
O342        O  0.44350987  0.08257638  0.72493258    -0.72600
Al343      Al  0.37734083  0.01133891  0.73835821     1.90100
O344        O  0.38991310  0.04116429  0.66389792    -0.71600
O345        O  0.39292713  0.16405040  0.71191349    -0.71500
O346        O  0.33820245  0.11001630  0.65508403    -0.77100
O347        O  0.37874106  0.15300376  0.76418070    -0.75300
O348        O  0.36965658  0.07267626  0.72470717    -1.11500
O349        O  0.35432457  0.07963170  0.79230438    -0.70700
C350        C  0.37974287  0.04939395  0.80958320     1.00100
C351        C  0.37305214  0.00149276  0.66135557     0.96400
Al352      Al  0.38998401  0.09806990  0.69180837     1.55600
O353        O  0.32750629  0.00130918  0.74337412    -0.75300
C354        C  0.38676384  0.18068069  0.74141458     1.00600
C355        C  0.45344230  0.03916801  0.73537497     0.95500
O356        O  0.42878322  0.00915024  0.73787875    -0.80600
O357        O  0.11294237  0.02626002  0.95331164    -0.80100
C358        C  0.20029181  0.13145654  0.58300749     0.99300
O359        O  0.19513969  0.14545000  0.54919601    -0.69200
O360        O  0.21309981  0.06876349  0.52340879    -0.72800
Al361      Al  0.17167399  0.10884727  0.00290850     1.49000
C362        C  0.21261498  0.02843233  0.50921729     0.94500
O363        O  0.15326219  0.98869343  0.55923291    -0.79000
O364        O  0.06772021  0.08256532  0.52053434    -0.72600
Al365      Al  0.13376990  0.01131413  0.50690083     1.90100
O366        O  0.12134038  0.04104108  0.58146730    -0.71600
O367        O  0.11836509  0.16398138  0.53359881    -0.71500
O368        O  0.17309780  0.10986965  0.59030992    -0.77100
O369        O  0.13249359  0.15305928  0.98128216    -0.75300
O370        O  0.14153318  0.07262900  0.52064064    -1.11500
O371        O  0.15679369  0.07970419  0.95300277    -0.70700
C372        C  0.13135970  0.04948773  0.93569882     1.00100
C373        C  0.13812795  0.00133618  0.58393101     0.96400
Al374      Al  0.12128200  0.09798094  0.55361768     1.55600
O375        O  0.18356888  0.00125246  0.50182022    -0.75300
C376        C  0.12451544  0.18067787  0.50411517     1.00600
C377        C  0.05773676  0.03918578  0.51002453     0.95500
O378        O  0.08234851  0.00916760  0.50742470    -0.80600
O379        O  0.18376043  0.48461486  0.51148417    -0.80100
C380        C  0.05602233  0.37645710  0.91800166     0.99300
O381        O  0.09011968  0.37139505  0.91639868    -0.69200
O382        O  0.12354924  0.45117071  0.90741072    -0.72800
Al383      Al  0.13950064  0.40364797  0.94564450     1.49000
C384        C  0.12923409  0.49537882  0.91115081     0.94500
O385        O  0.07679587  0.51061308  0.97094485    -0.79000
O386        O  0.12178709  0.40770685  0.54802263    -0.72600
Al387      Al  0.13005955  0.49394675  0.99092220     1.90100
O388        O  0.05928719  0.45280796  0.00173504    -0.71600
O389        O  0.10673844  0.34028405  0.49521461    -0.71500
O390        O  0.05091169  0.39277678  0.94761910    -0.77100
O391        O  0.15817552  0.34818557  0.97863616    -0.75300
O392        O  0.11981353  0.43264676  0.97774306    -1.11500
O393        O  0.19108931  0.43573763  0.96747952    -0.70700
C394        C  0.20411693  0.46870296  0.99278457     1.00100
C395        C  0.05297903  0.49178049  0.98440839     0.96400
Al396      Al  0.08782150  0.40091335  0.99654741     1.55600
O397        O  0.13446831  0.51566185  0.94298161    -0.75300
C398        C  0.13587142  0.32272697  0.99047528     1.00600
C399        C  0.12761930  0.44897678  0.56285371     0.95500
O400        O  0.12857405  0.48556380  0.54273727    -0.80600
C401        C  0.13952544  0.27206306  0.99652076    -0.11500
C402        C  0.13125238  0.23093943  0.00044722    -0.13100
C403        C  0.23881800  0.13694208  0.61187192    -0.11500
C404        C  0.27246463  0.13698747  0.63352173    -0.13100
C405        C  0.48982856  0.36586248  0.86037151    -0.11500
C406        C  0.02138351  0.36587054  0.88562444    -0.13100
C407        C  0.37178059  0.27202622  0.74920642    -0.11500
C408        C  0.38004684  0.23092906  0.74517253    -0.13100
C409        C  0.27056763  0.49368893  0.74783933    -0.11500
C410        C  0.24215016  0.51927622  0.74288650    -0.13100
C411        C  0.49221899  0.51417671  0.76210156    -0.11500
C412        C  0.01875822  0.51905096  0.75103880    -0.13100
C413        C  0.13183517  0.52185592  0.87872580    -0.11500
C414        C  0.13374904  0.53743252  0.84891907    -0.13100
C415        C  0.12324054  0.47106920  0.63038469    -0.11500
C416        C  0.12712832  0.45610067  0.60123111    -0.13100
C417        C  0.12176426  0.77205365  0.74916965    -0.11500
C418        C  0.13005761  0.73093071  0.74527151    -0.13100
C419        C  0.12731939  0.03742492  0.89670429    -0.11500
C420        C  0.12929575  0.02185508  0.86691911    -0.13100
C421        C  0.13790283  0.97105942  0.61524841    -0.11500
C422        C  0.13406417  0.95612144  0.64442900    -0.13100
C423        C  0.49220854  0.01945166  0.74258126    -0.11500
C424        C  0.02062319  0.99386286  0.74754464    -0.13100
C425        C  0.26882860  0.01888268  0.75067960    -0.11500
C426        C  0.24228908  0.01402278  0.76174192    -0.13100
C427        C  0.48883693  0.63711895  0.61210443    -0.11500
C428        C  0.02248144  0.63708854  0.63376518    -0.13100
C429        C  0.38802776  0.47122615  0.61562110    -0.11500
C430        C  0.38416851  0.45620911  0.64477072    -0.13100
C431        C  0.37932781  0.52171209  0.86724659    -0.11500
C432        C  0.37743116  0.53731789  0.89705040    -0.13100
C433        C  0.24065369  0.49383879  0.99806605    -0.11500
C434        C  0.26909286  0.51941519  0.50304573    -0.13100
C435        C  0.01905876  0.51409005  0.98398044    -0.11500
C436        C  0.49252387  0.51899116  0.49502468    -0.13100
C437        C  0.23983623  0.86587275  0.86001661    -0.11500
C438        C  0.27139182  0.86585381  0.88526444    -0.13100
C439        C  0.38944050  0.77209579  0.99647757    -0.11500
C440        C  0.38118931  0.73098824  0.00051048    -0.13100
C441        C  0.49055134  0.99390161  0.99786196    -0.11500
C442        C  0.01896481  0.01949293  0.50284213    -0.13100
C443        C  0.24221188  0.01881343  0.49442772    -0.11500
C444        C  0.26877168  0.01399097  0.98338176    -0.13100
C445        C  0.37706860  0.95629093  0.60083457    -0.11500
C446        C  0.37325878  0.97125083  0.63001832    -0.13100
C447        C  0.38378192  0.03729623  0.84856163    -0.11500
C448        C  0.38183467  0.02170857  0.87834647    -0.13100
O449        O  0.93353799  0.98486433  0.01107520    -0.80100
C450        C  0.80600132  0.87643552  0.41766296     0.99300
O451        O  0.84012210  0.87134399  0.41611813    -0.69200
O452        O  0.87366097  0.95103072  0.40710746    -0.72800
Al453      Al  0.88949422  0.90359360  0.44541793     1.49000
C454        C  0.87919742  0.99526873  0.41076886     0.94500
O455        O  0.82653955  0.01056682  0.47040510    -0.79000
O456        O  0.87164337  0.90785052  0.04765112    -0.72600
Al457      Al  0.87983538  0.99402699  0.49046429     1.90100
O458        O  0.80912271  0.95285575  0.50133373    -0.71600
O459        O  0.85658486  0.84032988  0.99492518    -0.71500
O460        O  0.80083462  0.89278724  0.44724572    -0.77100
O461        O  0.90810874  0.84817132  0.47850067    -0.75300
O462        O  0.86969947  0.93268129  0.47739050    -1.11500
O463        O  0.94106011  0.93569370  0.46733494    -0.70700
C464        C  0.95399137  0.96879732  0.49253522     1.00100
C465        C  0.80273849  0.99174444  0.48389176     0.96400
Al466      Al  0.83769023  0.90097411  0.49618697     1.55600
O467        O  0.88425274  0.01564291  0.44252604    -0.75300
C468        C  0.88576282  0.82274348  0.49030606     1.00600
C469        C  0.87746838  0.94914500  0.06243845     0.95500
O470        O  0.87834481  0.98572043  0.04227820    -0.80600
O471        O  0.86315531  0.52617178  0.45369953    -0.80100
C472        C  0.95029018  0.63166519  0.08324785     0.99300
O473        O  0.94511772  0.64566825  0.04943120    -0.69200
O474        O  0.96321838  0.56902621  0.02373096    -0.72800
Al475      Al  0.92172442  0.60896973  0.50317264     1.49000
C476        C  0.96282077  0.52863744  0.00966715     0.94500
O477        O  0.90346475  0.48888427  0.05966309    -0.79000
O478        O  0.81778299  0.58256402  0.02073485    -0.72600
Al479      Al  0.88397074  0.51137196  0.00729950     1.90100
O480        O  0.87139601  0.54117824  0.08176728    -0.71600
O481        O  0.86834765  0.66408323  0.03376943    -0.71500
O482        O  0.92310408  0.61007132  0.09056045    -0.77100
O483        O  0.88246449  0.65306004  0.48147215    -0.75300
O484        O  0.89163028  0.57272056  0.02093920    -1.11500
O485        O  0.90690348  0.57971997  0.45330457    -0.70700
C486        C  0.88151678  0.54942450  0.43604827     1.00100
C487        C  0.88825593  0.50151028  0.08430470     0.96400
Al488      Al  0.87131221  0.59809174  0.05385512     1.55600
O489        O  0.93381131  0.50139649  0.00228893    -0.75300
C490        C  0.87447646  0.68072933  0.00425785     1.00600
C491        C  0.80785446  0.53915331  0.01027630     0.95500
O492        O  0.83252190  0.50914733  0.00777553    -0.80600
O493        O  0.57757312  0.98473827  0.23421304    -0.80100
C494        C  0.70520425  0.87647877  0.32764179     0.99300
O495        O  0.67110506  0.87144723  0.32925221    -0.69200
O496        O  0.63761519  0.95117990  0.33823659    -0.72800
Al497      Al  0.62172298  0.90366537  0.29998496     1.49000
C498        C  0.63197316  0.99539324  0.33451612     0.94500
O499        O  0.68454963  0.01059702  0.27478691    -0.79000
O500        O  0.63945267  0.90775114  0.19764148    -0.72600
Al501      Al  0.63126235  0.99399346  0.25478305     1.90100
O502        O  0.70198050  0.95281770  0.24391712    -0.71600
O503        O  0.65451734  0.84030792  0.25042108    -0.71500
O504        O  0.71032636  0.89278180  0.29802504    -0.77100
O505        O  0.60307322  0.84818660  0.26699370    -0.75300
O506        O  0.64144754  0.93267734  0.26792241    -1.11500
O507        O  0.57014450  0.93573207  0.27810164    -0.70700
C508        C  0.55716127  0.96874897  0.25284052     1.00100
C509        C  0.70834283  0.99175816  0.26129577     0.96400
Al510      Al  0.67342262  0.90093682  0.24910212     1.55600
O511        O  0.62684583  0.01569874  0.30271875    -0.75300
C512        C  0.62538667  0.82273263  0.25516942     1.00600
C513        C  0.63364102  0.94902576  0.18282640     0.95500
O514        O  0.63275255  0.98562129  0.20296534    -0.80600
O515        O  0.64808579  0.52621205  0.29229988    -0.80100
C516        C  0.56099550  0.63158421  0.16264595     0.99300
O517        O  0.56614609  0.64559555  0.19645722    -0.69200
O518        O  0.54802103  0.56898817  0.22219958    -0.72800
Al519      Al  0.58952444  0.60894391  0.24274137     1.49000
C520        C  0.54841772  0.52863983  0.23632730     0.94500
O521        O  0.60778046  0.48876441  0.18634278    -0.79000
O522        O  0.69348065  0.58244312  0.22520972    -0.72600
Al523      Al  0.62726576  0.51132995  0.23869813     1.90100
O524        O  0.63985204  0.54102771  0.16420958    -0.71600
O525        O  0.64294940  0.66396742  0.21212748    -0.71500
O526        O  0.58817821  0.60995331  0.15535868    -0.77100
O527        O  0.62877942  0.65306068  0.26441704    -0.75300
O528        O  0.61962043  0.57266153  0.22500918    -1.11500
O529        O  0.60432874  0.57976794  0.29263420    -0.70700
C530        C  0.62970899  0.54949100  0.30992370     1.00100
C531        C  0.62299092  0.50136235  0.16169316     0.96400
Al532      Al  0.63995828  0.59796839  0.19208325     1.55600
O533        O  0.57741917  0.50139042  0.24371647    -0.75300
C534        C  0.63679558  0.68067469  0.24160656     1.00600
C535        C  0.70339224  0.53903868  0.23568688     0.95500
O536        O  0.67871699  0.50906549  0.23822843    -0.80600
O537        O  0.82751524  0.48457718  0.23448792    -0.80100
C538        C  0.95521136  0.37644482  0.32797799     0.99300
O539        O  0.92110083  0.37133024  0.32953804    -0.69200
O540        O  0.88758649  0.45103961  0.33853128    -0.72800
Al541      Al  0.87171562  0.40353978  0.30025969     1.49000
C542        C  0.88193523  0.49525443  0.33482159     0.94500
O543        O  0.93446298  0.51062443  0.27511304    -0.79000
O544        O  0.88956434  0.40775694  0.19795392    -0.72600
Al545      Al  0.88119911  0.49392025  0.25508752     1.90100
O546        O  0.95201184  0.45287200  0.24430954    -0.71600
O547        O  0.90460196  0.34028728  0.25071163    -0.71500
O548        O  0.96035128  0.39280413  0.29838757    -0.77100
O549        O  0.85310443  0.34808465  0.26721357    -0.75300
O550        O  0.89144493  0.43261343  0.26822505    -1.11500
O551        O  0.82011980  0.43557943  0.27839046    -0.70700
C552        C  0.80711448  0.46858641  0.25312628     1.00100
C553        C  0.95830114  0.49183342  0.26165794     0.96400
Al554      Al  0.92348235  0.40094440  0.24944141     1.55600
O555        O  0.87675401  0.51557064  0.30301875    -0.75300
C556        C  0.87543966  0.32268129  0.25537514     1.00600
C557        C  0.88370472  0.44903841  0.18315127     0.95500
O558        O  0.88273265  0.48559895  0.20329037    -0.80600
O559        O  0.89815708  0.02619016  0.29195980    -0.80100
C560        C  0.81099862  0.13158613  0.16238311     0.99300
O561        O  0.81614485  0.14558084  0.19619611    -0.69200
O562        O  0.79805438  0.06887345  0.22183938    -0.72800
Al563      Al  0.83951991  0.10887489  0.24244461     1.49000
C564        C  0.79847810  0.02851693  0.23596310     0.94500
O565        O  0.85786006  0.98884640  0.18600026    -0.79000
O566        O  0.94351077  0.08258296  0.22493123    -0.72600
Al567      Al  0.87734211  0.01134499  0.23835771     1.90100
O568        O  0.88991284  0.04117332  0.16389621    -0.71600
O569        O  0.89292806  0.16405691  0.21191593    -0.71500
O570        O  0.83820263  0.11002610  0.15508385    -0.77100
O571        O  0.87873835  0.15300962  0.26418140    -0.75300
O572        O  0.86965693  0.07268257  0.22470676    -1.11500
O573        O  0.85432190  0.07963404  0.29230365    -0.70700
C574        C  0.87973971  0.04939546  0.30958255     1.00100
C575        C  0.87305447  0.00149998  0.16135468     0.96400
Al576      Al  0.88998433  0.09807772  0.19180829     1.55600
O577        O  0.82750730  0.00131342  0.24337275    -0.75300
C578        C  0.88676341  0.18068646  0.24141643     1.00600
C579        C  0.95344343  0.03917458  0.23537390     0.95500
O580        O  0.92878448  0.00915761  0.23787911    -0.80600
O581        O  0.61293101  0.02625891  0.45330972    -0.80100
C582        C  0.70029118  0.13146754  0.08300637     0.99300
O583        O  0.69513773  0.14546307  0.04919495    -0.69200
O584        O  0.71310608  0.06878115  0.02340938    -0.72800
Al585      Al  0.67167194  0.10883701  0.50290942     1.49000
C586        C  0.71262635  0.02844755  0.00922372     0.94500
O587        O  0.65327271  0.98870222  0.05923593    -0.79000
O588        O  0.56772408  0.08256427  0.02053037    -0.72600
Al589      Al  0.63378060  0.01131937  0.00690304     1.90100
O590        O  0.62134394  0.04104577  0.08146552    -0.71600
O591        O  0.61836278  0.16398388  0.03359618    -0.71500
O592        O  0.67309847  0.10987783  0.09030876    -0.77100
O593        O  0.63249657  0.15305580  0.48128514    -0.75300
O594        O  0.64153821  0.07263509  0.02064032    -1.11500
O595        O  0.65678766  0.07969650  0.45300267    -0.70700
C596        C  0.63135094  0.04948366  0.43569749     1.00100
C597        C  0.63813507  0.00134341  0.08393177     0.96400
Al598      Al  0.62128366  0.09798473  0.05361556     1.55600
O599        O  0.68358210  0.00126415  0.00182614    -0.75300
C600        C  0.62451122  0.18068066  0.00411193     1.00600
C601        C  0.55774365  0.03918394  0.01002109     0.95500
O602        O  0.58235799  0.00916738  0.00742416    -0.80600
O603        O  0.68374583  0.48462284  0.01147924    -0.80100
C604        C  0.55603094  0.37646216  0.41800072     0.99300
O605        O  0.59012762  0.37139997  0.41639646    -0.69200
O606        O  0.62356087  0.45117541  0.40741309    -0.72800
Al607      Al  0.63951029  0.40364833  0.44564401     1.49000
C608        C  0.62924833  0.49538306  0.41115569     0.94500
O609        O  0.57681261  0.51061740  0.47095127    -0.79000
O610        O  0.62177687  0.40770908  0.04802104    -0.72600
Al611      Al  0.63007505  0.49394515  0.49092736     1.90100
O612        O  0.55929913  0.45281006  0.50173605    -0.71600
O613        O  0.60672940  0.34028424  0.99521479    -0.71500
O614        O  0.55092165  0.39277962  0.44761942    -0.77100
O615        O  0.65818268  0.34818141  0.47863234    -0.75300
O616        O  0.61982521  0.43264633  0.47774473    -1.11500
O617        O  0.69110034  0.43573348  0.46748038    -0.70700
C618        C  0.70413000  0.46869596  0.49278778     1.00100
C619        C  0.55299475  0.49178609  0.48441426     0.96400
Al620      Al  0.58783194  0.40091394  0.49654803     1.55600
O621        O  0.63448545  0.51566321  0.44298800    -0.75300
C622        C  0.63587896  0.32272453  0.49047346     1.00600
C623        C  0.62760767  0.44897973  0.06285081     0.95500
O624        O  0.62855987  0.48556676  0.04273312    -0.80600
C625        C  0.63953189  0.27205996  0.49652083    -0.11500
C626        C  0.63125823  0.23093707  0.50044981    -0.13100
C627        C  0.73881809  0.13695325  0.11187048    -0.11500
C628        C  0.77246452  0.13699783  0.13352069    -0.13100
C629        C  0.98983450  0.36586959  0.36037225    -0.11500
C630        C  0.52139043  0.36587752  0.38562364    -0.13100
C631        C  0.87178260  0.27203247  0.24920878    -0.11500
C632        C  0.88004793  0.23093507  0.24517520    -0.13100
C633        C  0.77056827  0.49369300  0.24783967    -0.11500
C634        C  0.74214984  0.51927928  0.24288516    -0.13100
C635        C  0.99222187  0.51418024  0.26210824    -0.11500
C636        C  0.51876144  0.51905369  0.25104596    -0.13100
C637        C  0.63184725  0.52186283  0.37873079    -0.11500
C638        C  0.63375777  0.53744060  0.34892297    -0.13100
C639        C  0.62323313  0.47107020  0.13038374    -0.11500
C640        C  0.62711852  0.45610349  0.10122879    -0.13100
C641        C  0.62176215  0.77205874  0.24915950    -0.11500
C642        C  0.63005473  0.73093559  0.24526173    -0.13100
C643        C  0.62731139  0.03742072  0.39670312    -0.11500
C644        C  0.62929049  0.02185221  0.36691826    -0.13100
C645        C  0.63790976  0.97106752  0.11524904    -0.11500
C646        C  0.63406850  0.95613113  0.14442872    -0.13100
C647        C  0.99220910  0.01945723  0.24257926    -0.11500
C648        C  0.52062334  0.99386707  0.24754203    -0.13100
C649        C  0.76883018  0.01888732  0.25067995    -0.11500
C650        C  0.74229105  0.01402790  0.26174291    -0.13100
C651        C  0.98883176  0.63711162  0.11210316    -0.11500
C652        C  0.52247599  0.63708170  0.13376515    -0.13100
C653        C  0.88801793  0.47123376  0.11562005    -0.11500
C654        C  0.88416343  0.45621709  0.14477203    -0.13100
C655        C  0.87933228  0.52171792  0.36724994    -0.11500
C656        C  0.87743813  0.53732502  0.39705433    -0.13100
C657        C  0.74066712  0.49382986  0.49806933    -0.11500
C658        C  0.76907940  0.51942444  0.00304223    -0.13100
C659        C  0.51907800  0.51410075  0.48399147    -0.11500
C660        C  0.99250530  0.51897617  0.99501476    -0.13100
C661        C  0.73983695  0.86587118  0.36001052    -0.11500
C662        C  0.77139241  0.86584932  0.38525889    -0.13100
C663        C  0.88943839  0.77209482  0.49648776    -0.11500
C664        C  0.88118746  0.73098756  0.50052046    -0.13100
C665        C  0.99054387  0.99390582  0.49786863    -0.11500
C666        C  0.51897232  0.01948861  0.00283619    -0.13100
C667        C  0.74222884  0.01882764  0.99444212    -0.11500
C668        C  0.76875409  0.01397816  0.48336615    -0.13100
C669        C  0.87707772  0.95629541  0.10083672    -0.11500
C670        C  0.87326452  0.97125711  0.13001840    -0.13100
C671        C  0.88377463  0.03729164  0.34855942    -0.11500
C672        C  0.88182663  0.02170004  0.37834310    -0.13100
O673        O  0.93352665  0.98486923  0.51107525    -0.80100
C674        C  0.80600278  0.87644190  0.91766549     0.99300
O675        O  0.84012165  0.87135329  0.91611545    -0.69200
O676        O  0.87365957  0.95104060  0.90710582    -0.72800
Al677      Al  0.88949548  0.90359936  0.94541237     1.49000
C678        C  0.87920338  0.99527693  0.91077063     0.94500
O679        O  0.82655295  0.01057538  0.97041279    -0.79000
O680        O  0.87163050  0.90784694  0.54764852    -0.72600
Al681      Al  0.87984761  0.99402990  0.99046763     1.90100
O682        O  0.80913445  0.95286170  0.00133863    -0.71600
O683        O  0.85657591  0.84032558  0.49492408    -0.71500
O684        O  0.80084007  0.89279181  0.94725063    -0.77100
O685        O  0.90811071  0.84817243  0.97848943    -0.75300
O686        O  0.86970681  0.93268540  0.97739070    -1.11500
O687        O  0.94106328  0.93569582  0.96732653    -0.70700
C688        C  0.95399878  0.96879471  0.99253012     1.00100
C689        C  0.80275259  0.99175373  0.98390107     0.96400
Al690      Al  0.83769980  0.90097863  0.99619011     1.55600
O691        O  0.88426461  0.01564832  0.94253002    -0.75300
C692        C  0.88576725  0.82274542  0.99029903     1.00600
C693        C  0.87745585  0.94914190  0.56243551     0.95500
O694        O  0.87833108  0.98571747  0.54227482    -0.80600
O695        O  0.86314217  0.52617071  0.95369385    -0.80100
C696        C  0.95029464  0.63167075  0.58325124     0.99300
O697        O  0.94511850  0.64567790  0.54943475    -0.69200
O698        O  0.96322802  0.56904495  0.52372930    -0.72800
Al699      Al  0.92172130  0.60896001  0.00317007     1.49000
C700        C  0.96283506  0.52865368  0.50967093     0.94500
O701        O  0.90348063  0.48888472  0.55966817    -0.79000
O702        O  0.81779296  0.58255706  0.52074077    -0.72600
Al703      Al  0.88398565  0.51137392  0.50730456     1.90100
O704        O  0.87140703  0.54117266  0.58177159    -0.71600
O705        O  0.86835063  0.66408049  0.53377878    -0.71500
O706        O  0.92311182  0.61007109  0.59056533    -0.77100
O707        O  0.88246884  0.65305875  0.98146687    -0.75300
O708        O  0.89163974  0.57272247  0.52094429    -1.11500
O709        O  0.90689865  0.57970913  0.95330204    -0.70700
C710        C  0.88150827  0.54941822  0.93604419     1.00100
C711        C  0.88826858  0.50150622  0.58430833     0.96400
Al712      Al  0.87132032  0.59808803  0.55386136     1.55600
O713        O  0.93382825  0.50140795  0.50229508    -0.75300
C714        C  0.87447449  0.68072870  0.50426573     1.00600
C715        C  0.80786698  0.53914606  0.51028063     0.95500
O716        O  0.83253615  0.50914265  0.50777966    -0.80600
O717        O  0.57757231  0.98473234  0.73421442    -0.80100
C718        C  0.70520385  0.87647766  0.82764725     0.99300
O719        O  0.67110478  0.87144580  0.82925748    -0.69200
O720        O  0.63761649  0.95118018  0.83823898    -0.72800
Al721      Al  0.62172331  0.90366338  0.79998943     1.49000
C722        C  0.63197509  0.99539344  0.83451691     0.94500
O723        O  0.68454843  0.01059278  0.77478654    -0.79000
O724        O  0.63945303  0.90774277  0.69764463    -0.72600
Al725      Al  0.63126154  0.99398837  0.75478363     1.90100
O726        O  0.70198009  0.95281109  0.74391943    -0.71600
O727        O  0.65451770  0.84030280  0.75042784    -0.71500
O728        O  0.71032603  0.89277892  0.79802988    -0.77100
O729        O  0.60307359  0.84818259  0.76700060    -0.75300
O730        O  0.64144731  0.93267292  0.76792524    -1.11500
O731        O  0.57014503  0.93572976  0.77810574    -0.70700
C732        C  0.55716132  0.96874477  0.75284338     1.00100
C733        C  0.70834181  0.99175283  0.76129623     0.96400
Al734      Al  0.67342268  0.90093103  0.74910629     1.55600
O735        O  0.62684578  0.01569683  0.80271859    -0.75300
C736        C  0.62538749  0.82272777  0.75517731     1.00600
C737        C  0.63363986  0.94901676  0.68282816     0.95500
O738        O  0.63275126  0.98561305  0.70296626    -0.80600
O739        O  0.64808384  0.52620893  0.79229892    -0.80100
C740        C  0.56099990  0.63158847  0.66264648     0.99300
O741        O  0.56614885  0.64559628  0.69645795    -0.69200
O742        O  0.54801971  0.56898346  0.72219178    -0.72800
Al743      Al  0.58952268  0.60893937  0.74273959     1.49000
C744        C  0.54841563  0.52863565  0.73632065     0.94500
O745        O  0.60778325  0.48876265  0.68634121    -0.79000
O746        O  0.69348235  0.58244075  0.72521310    -0.72600
Al747      Al  0.62726581  0.51132713  0.73869685     1.90100
O748        O  0.63985448  0.54102867  0.66420966    -0.71600
O749        O  0.64295327  0.66396554  0.71213451    -0.71500
O750        O  0.58818279  0.60995731  0.65535954    -0.77100
O751        O  0.62877734  0.65305441  0.76442059    -0.75300
O752        O  0.61962088  0.57265910  0.72500870    -1.11500
O753        O  0.60432236  0.57975980  0.79263046    -0.70700
C754        C  0.62970363  0.54948462  0.80992114     1.00100
C755        C  0.62299492  0.50136185  0.66169276     0.96400
Al756      Al  0.63996123  0.59796833  0.69208574     1.55600
O757        O  0.57741769  0.50138685  0.74371260    -0.75300
C758        C  0.63679725  0.68067025  0.74161351     1.00600
C759        C  0.70339311  0.53903596  0.73568898     0.95500
O760        O  0.67871742  0.50906286  0.73822927    -0.80600
O761        O  0.82751289  0.48457092  0.73448487    -0.80100
C762        C  0.95520707  0.37643855  0.82797664     0.99300
O763        O  0.92109612  0.37132404  0.82953545    -0.69200
O764        O  0.88758309  0.45103424  0.83852795    -0.72800
Al765      Al  0.87171246  0.40353414  0.80025665     1.49000
C766        C  0.88193232  0.49524924  0.83481822     0.94500
O767        O  0.93446064  0.51062007  0.77510830    -0.79000
O768        O  0.88956459  0.40774980  0.69795199    -0.72600
Al769      Al  0.88119682  0.49391437  0.75508389     1.90100
O770        O  0.95201128  0.45286511  0.74430856    -0.71600
O771        O  0.90459996  0.34028109  0.75071009    -0.71500
O772        O  0.96034831  0.39279845  0.79838707    -0.77100
O773        O  0.85310153  0.34807871  0.76721061    -0.75300
O774        O  0.89144277  0.43260762  0.76822237    -1.11500
O775        O  0.82011752  0.43557373  0.77838766    -0.70700
C776        C  0.80711265  0.46858109  0.75312394     1.00100
C777        C  0.95829917  0.49182851  0.76165380     0.96400
Al778      Al  0.92348098  0.40093806  0.74944013     1.55600
O779        O  0.87675194  0.51556553  0.80301554    -0.75300
C780        C  0.87543733  0.32267507  0.75537272     1.00600
C781        C  0.88370517  0.44903088  0.68314872     0.95500
O782        O  0.88273062  0.48559162  0.70328667    -0.80600
O783        O  0.89815736  0.02618457  0.79195978    -0.80100
C784        C  0.81099874  0.13157725  0.66238332     0.99300
O785        O  0.81614584  0.14557428  0.69619604    -0.69200
O786        O  0.79805447  0.06887052  0.72184247    -0.72800
Al787      Al  0.83952121  0.10887037  0.74244539     1.49000
C788        C  0.79847752  0.02851333  0.73596497     0.94500
O789        O  0.85785694  0.98884062  0.68600100    -0.79000
O790        O  0.94350987  0.08257638  0.72493258    -0.72600
Al791      Al  0.87734083  0.01133891  0.73835821     1.90100
O792        O  0.88991310  0.04116429  0.66389792    -0.71600
O793        O  0.89292713  0.16405040  0.71191349    -0.71500
O794        O  0.83820246  0.11001630  0.65508404    -0.77100
O795        O  0.87874106  0.15300376  0.76418070    -0.75300
O796        O  0.86965658  0.07267626  0.72470717    -1.11500
O797        O  0.85432457  0.07963170  0.79230438    -0.70700
C798        C  0.87974287  0.04939395  0.80958320     1.00100
C799        C  0.87305214  0.00149276  0.66135557     0.96400
Al800      Al  0.88998401  0.09806990  0.69180837     1.55600
O801        O  0.82750629  0.00130918  0.74337412    -0.75300
C802        C  0.88676384  0.18068069  0.74141458     1.00600
C803        C  0.95344230  0.03916801  0.73537497     0.95500
O804        O  0.92878322  0.00915024  0.73787875    -0.80600
O805        O  0.61294237  0.02626002  0.95331164    -0.80100
C806        C  0.70029183  0.13145667  0.58300747     0.99300
O807        O  0.69513972  0.14544997  0.54919602    -0.69200
O808        O  0.71309979  0.06876345  0.52340878    -0.72800
Al809      Al  0.67167399  0.10884727  0.00290850     1.49000
C810        C  0.71261490  0.02843233  0.50921728     0.94500
O811        O  0.65326218  0.98869343  0.55923291    -0.79000
O812        O  0.56772021  0.08256532  0.52053434    -0.72600
Al813      Al  0.63376988  0.01131412  0.50690083     1.90100
O814        O  0.62134037  0.04104107  0.58146729    -0.71600
O815        O  0.61836511  0.16398137  0.53359882    -0.71500
O816        O  0.67309780  0.10986959  0.59030991    -0.77100
O817        O  0.63249359  0.15305928  0.98128216    -0.75300
O818        O  0.64153317  0.07262898  0.52064063    -1.11500
O819        O  0.65679369  0.07970419  0.95300277    -0.70700
C820        C  0.63135970  0.04948773  0.93569882     1.00100
C821        C  0.63812794  0.00133618  0.58393101     0.96400
Al822      Al  0.62128201  0.09798093  0.55361768     1.55600
O823        O  0.68356888  0.00125245  0.50182022    -0.75300
C824        C  0.62451545  0.18067787  0.50411518     1.00600
C825        C  0.55773675  0.03918579  0.51002453     0.95500
O826        O  0.58234850  0.00916760  0.50742470    -0.80600
O827        O  0.68376043  0.48461486  0.51148417    -0.80100
C828        C  0.55602233  0.37645710  0.91800166     0.99300
O829        O  0.59011968  0.37139505  0.91639868    -0.69200
O830        O  0.62354924  0.45117071  0.90741072    -0.72800
Al831      Al  0.63950064  0.40364797  0.94564450     1.49000
C832        C  0.62923409  0.49537882  0.91115081     0.94500
O833        O  0.57679587  0.51061308  0.97094485    -0.79000
O834        O  0.62178709  0.40770685  0.54802264    -0.72600
Al835      Al  0.63005955  0.49394675  0.99092220     1.90100
O836        O  0.55928719  0.45280796  0.00173504    -0.71600
O837        O  0.60673844  0.34028405  0.49521461    -0.71500
O838        O  0.55091169  0.39277678  0.94761910    -0.77100
O839        O  0.65817552  0.34818557  0.97863616    -0.75300
O840        O  0.61981353  0.43264676  0.97774306    -1.11500
O841        O  0.69108931  0.43573763  0.96747952    -0.70700
C842        C  0.70411693  0.46870296  0.99278457     1.00100
C843        C  0.55297903  0.49178049  0.98440839     0.96400
Al844      Al  0.58782150  0.40091335  0.99654741     1.55600
O845        O  0.63446831  0.51566185  0.94298161    -0.75300
C846        C  0.63587142  0.32272697  0.99047528     1.00600
C847        C  0.62761930  0.44897678  0.56285371     0.95500
O848        O  0.62857405  0.48556380  0.54273727    -0.80600
C849        C  0.63952544  0.27206306  0.99652076    -0.11500
C850        C  0.63125238  0.23093943  0.00044722    -0.13100
C851        C  0.73881800  0.13694200  0.61187190    -0.11500
C852        C  0.77246465  0.13698742  0.63352175    -0.13100
C853        C  0.98982856  0.36586247  0.86037151    -0.11500
C854        C  0.52138351  0.36587054  0.88562444    -0.13100
C855        C  0.87178059  0.27202622  0.74920642    -0.11500
C856        C  0.88004684  0.23092906  0.74517253    -0.13100
C857        C  0.77056757  0.49368902  0.74783925    -0.11500
C858        C  0.74215020  0.51927612  0.74288648    -0.13100
C859        C  0.99221898  0.51417672  0.76210157    -0.11500
C860        C  0.51875822  0.51905096  0.75103880    -0.13100
C861        C  0.63183517  0.52185592  0.87872580    -0.11500
C862        C  0.63374904  0.53743252  0.84891907    -0.13100
C863        C  0.62324054  0.47106920  0.63038469    -0.11500
C864        C  0.62712832  0.45610067  0.60123111    -0.13100
C865        C  0.62176426  0.77205365  0.74916965    -0.11500
C866        C  0.63005761  0.73093071  0.74527151    -0.13100
C867        C  0.62731939  0.03742492  0.89670429    -0.11500
C868        C  0.62929575  0.02185508  0.86691911    -0.13100
C869        C  0.63790283  0.97105942  0.61524841    -0.11500
C870        C  0.63406417  0.95612144  0.64442900    -0.13100
C871        C  0.99220854  0.01945166  0.74258126    -0.11500
C872        C  0.52062319  0.99386286  0.74754464    -0.13100
C873        C  0.76882860  0.01888268  0.75067960    -0.11500
C874        C  0.74228908  0.01402278  0.76174192    -0.13100
C875        C  0.98883693  0.63711895  0.61210443    -0.11500
C876        C  0.52248144  0.63708854  0.63376518    -0.13100
C877        C  0.88802776  0.47122615  0.61562110    -0.11500
C878        C  0.88416851  0.45620910  0.64477071    -0.13100
C879        C  0.87932780  0.52171210  0.86724658    -0.11500
C880        C  0.87743116  0.53731788  0.89705040    -0.13100
C881        C  0.74065369  0.49383879  0.99806605    -0.11500
C882        C  0.76909286  0.51941519  0.50304573    -0.13100
C883        C  0.51905876  0.51409005  0.98398045    -0.11500
C884        C  0.99252388  0.51899116  0.49502468    -0.13100
C885        C  0.73983623  0.86587275  0.86001661    -0.11500
C886        C  0.77139182  0.86585381  0.88526444    -0.13100
C887        C  0.88944050  0.77209579  0.99647757    -0.11500
C888        C  0.88118931  0.73098824  0.00051048    -0.13100
C889        C  0.99055134  0.99390161  0.99786196    -0.11500
C890        C  0.51896481  0.01949293  0.50284213    -0.13100
C891        C  0.74221201  0.01881339  0.49442768    -0.11500
C892        C  0.76877168  0.01399097  0.98338176    -0.13100
C893        C  0.87706860  0.95629093  0.60083457    -0.11500
C894        C  0.87325878  0.97125083  0.63001832    -0.13100
C895        C  0.88378192  0.03729623  0.84856163    -0.11500
C896        C  0.88183467  0.02170857  0.87834647    -0.13100
loop_ 
_geom_bond_atom_site_label_1 
_geom_bond_atom_site_label_2 
_geom_bond_distance 
_geom_bond_site_symmetry_2 
_ccdc_geom_bond_type 
O1          C240   1.257   1_554  A
O1         Al233   1.873   1_554  S
C2           O12   1.256       .  A
C2            O3   1.279       .  A
C2          C214   1.450       .  S
O3           Al5   1.984       .  S
O4            C6   1.253       .  A
O4           Al5   1.882       .  S
Al5          O13   1.948       .  S
Al5          O15   2.000       .  S
Al5          O14   1.778       .  S
C6           O19   1.260   1_565  A
C6          C224   1.438   1_565  S
O7           C17   1.257   1_545  A
O7           Al9   1.898   1_545  S
O8           C21   1.264       .  A
O8         Al242   1.897   1_554  S
Al9          O19   1.928   1_565  S
Al9         O225   1.873       .  S
Al9         O246   1.946       .  S
Al9          O14   1.786       .  S
O10          C17   1.245       .  A
O10         Al18   1.836       .  S
O11         C244   1.241       .  A
O11        Al242   1.838       .  S
O12         Al18   1.869       .  S
O13          C20   1.268       .  A
O14         Al18   1.788       .  S
O15          C16   1.284       .  A
C16         O225   1.257       .  A
C16         C217   1.466       .  S
C17         C220   1.387   1_565  S
Al18        O232   1.897       .  S
Al18        O235   1.838       .  S
C20         O235   1.241       .  A
C20         C215   1.433       .  S
C21          O22   1.271       .  A
C21         C221   1.437       .  S
O22        Al233   1.946   1_554  S
O23          C38   1.264       .  A
O23        Al255   1.910       .  S
C24          O34   1.270       .  A
C24          O25   1.260       .  A
C24         C203   1.462       .  S
O25        Al251   1.927       .  S
O26          C28   1.241       .  A
O26        Al251   1.832       .  S
Al27         O35   1.858       .  S
Al27         O37   1.918       .  S
Al27        O249   1.927       .  S
Al27        O250   1.832       .  S
Al27        O260   1.779       .  S
C28          O41   1.261       .  A
C28         C212   1.396   1_554  S
O29          C39   1.267       .  A
O29         Al31   1.926       .  S
O30          C43   1.288       .  A
O30         Al40   1.978       .  S
Al31         O44   1.893       .  S
Al31         O41   1.918       .  S
Al31        O247   1.910   1_554  S
Al31         O36   1.782       .  S
O32          C39   1.257       .  A
O32         Al40   1.895       .  S
O33          C42   1.273       .  A
O33         Al40   1.977       .  S
O34         Al40   1.953       .  S
O35         C266   1.249       .  A
O36         Al40   1.774       .  S
O36        Al251   1.779       .  S
O37          C38   1.260       .  A
C38         C208   1.437       .  S
C39         C205   1.435       .  S
C42         O259   1.249   1_554  A
C42         C440   1.441       .  S
C43          O44   1.260       .  A
C43         C210   1.463       .  S
O45          C60   1.257       .  A
O45         Al53   1.873       .  S
C46          O56   1.256       .  A
C46          O47   1.279       .  A
C46         C213   1.450       .  S
O47         Al49   1.984       .  S
O48          C50   1.253       .  A
O48         Al49   1.882       .  S
Al49         O57   1.947       .  S
Al49         O59   2.000       .  S
Al49         O58   1.778       .  S
C50          O63   1.260   1_565  A
C50         C196   1.438   1_565  S
O51          C61   1.257   1_545  A
O51         Al53   1.898   1_545  S
O52          C65   1.264       .  A
O52         Al62   1.897       .  S
Al53         O66   1.947       .  S
Al53         O63   1.929   1_565  S
Al53         O58   1.786       .  S
O54          C61   1.245       .  A
O54         Al62   1.836       .  S
O55          C64   1.241       .  A
O55         Al62   1.838       .  S
O56         Al62   1.869       .  S
O57          C64   1.268       .  A
O58         Al62   1.788       .  S
O59          C60   1.284       .  A
C60         C200   1.466       .  S
C61         C202   1.387   1_565  S
C64         C193   1.433       .  S
C65          O66   1.271       .  A
C65         C198   1.437       .  S
O67          C82   1.264       .  A
O67         Al75   1.911       .  S
C68          O78   1.270       .  A
C68          O69   1.260       .  A
C68         C204   1.462       .  S
O69         Al71   1.927       .  S
O70          C72   1.241       .  A
O70         Al71   1.832       .  S
Al71         O79   1.858       .  S
Al71         O81   1.918       .  S
Al71         O80   1.779       .  S
C72          O85   1.261       .  A
C72         C188   1.396       .  S
O73          C83   1.268       .  A
O73         Al75   1.926       .  S
O74          C87   1.288       .  A
O74         Al84   1.978       .  S
Al75         O88   1.894       .  S
Al75         O85   1.919       .  S
Al75         O80   1.782       .  S
O76          C83   1.257       .  A
O76         Al84   1.894       .  S
O77          C86   1.273       .  A
O77         Al84   1.977       .  S
O78         Al84   1.953       .  S
O79          C86   1.249       .  A
O80         Al84   1.774       .  S
O81          C82   1.260       .  A
C82         C190   1.437       .  S
C83         C191   1.435       .  S
C86         C194   1.441       .  S
C87          O88   1.260       .  A
C87         C186   1.463       .  S
O89         C104   1.257       .  A
O89         Al97   1.873       .  S
C90         O100   1.256       .  A
C90          O91   1.279       .  A
C90         C181   1.450       .  S
O91         Al93   1.984       .  S
O92          C94   1.253       .  A
O92         Al93   1.882       .  S
Al93        O101   1.948       .  S
Al93        O103   2.000       .  S
Al93        O102   1.778       .  S
C94         O107   1.260       .  A
C94         C207   1.438       .  S
O95         C105   1.257       .  A
O95         Al97   1.898       .  S
O96         C109   1.264       .  A
O96        Al106   1.897       .  S
Al97        O110   1.946       .  S
Al97        O107   1.929       .  S
Al97        O102   1.786       .  S
O98         C105   1.245       .  A
O98        Al106   1.836       .  S
O99         C108   1.241       .  A
O99        Al106   1.838       .  S
O100       Al106   1.869       .  S
O101        C108   1.268       .  A
O102       Al106   1.788       .  S
O103        C104   1.284       .  A
C104        C185   1.466       .  S
C105        C187   1.387       .  S
C108        C183   1.433       .  S
C109        O110   1.271       .  A
C109        C206   1.437       .  S
O111        C126   1.264       .  A
O111       Al119   1.911       .  S
C112        O122   1.270       .  A
C112        O113   1.260       .  A
C112        C180   1.462       .  S
O113       Al115   1.927       .  S
O114        C116   1.241       .  A
O114       Al115   1.832       .  S
Al115       O123   1.858       .  S
Al115       O125   1.917       .  S
Al115       O124   1.778       .  S
C116        O129   1.261       .  A
C116        C201   1.396       .  S
O117        C127   1.267   1_565  A
O117       Al119   1.926   1_565  S
O118        C131   1.288       .  A
O118       Al128   1.978       .  S
Al119       O132   1.893       .  S
Al119       O129   1.918       .  S
Al119       O124   1.782       .  S
O120        C127   1.257       .  A
O120       Al128   1.895       .  S
O121        C130   1.273       .  A
O121       Al128   1.977       .  S
O122       Al128   1.953       .  S
O123        C130   1.249       .  A
O124       Al128   1.774       .  S
O125        C126   1.260       .  A
C126        C223   1.437       .  S
C127        C222   1.435   1_545  S
C130        C184   1.441       .  S
C131        O132   1.260       .  A
C131        C199   1.463       .  S
O133        C148   1.264       .  A
O133       Al365   1.911       .  S
C134        O144   1.270       .  A
C134        O135   1.260       .  A
C134        C179   1.462       .  S
O135       Al361   1.927       .  S
O136        C138   1.241       .  A
O136       Al361   1.832       .  S
Al137       O145   1.858       .  S
Al137       O147   1.917       .  S
Al137       O359   1.927       .  S
Al137       O360   1.832       .  S
Al137       O370   1.779       .  S
C138        O151   1.261       .  A
C138        C219   1.396   1_554  S
O139        C149   1.268   1_565  A
O139       Al141   1.926   1_565  S
O140        C153   1.288       .  A
O140       Al150   1.978       .  S
Al141       O154   1.893       .  S
Al141       O151   1.918       .  S
Al141       O357   1.911   1_554  S
Al141       O146   1.783       .  S
O142        C149   1.257       .  A
O142       Al150   1.894       .  S
O143        C152   1.273       .  A
O143       Al150   1.977       .  S
O144       Al150   1.953       .  S
O145        C376   1.249       .  A
O146       Al150   1.774       .  S
O146       Al361   1.779       .  S
O147        C148   1.260       .  A
C148        C195   1.437       .  S
C149        C197   1.435   1_545  S
C152        O369   1.249   1_554  A
C152        C402   1.441       .  S
C153        O154   1.259       .  A
C153        C218   1.463       .  S
O155        C394   1.257   1_554  A
O155       Al387   1.873   1_554  S
C156        O166   1.256       .  A
C156        O157   1.279       .  A
C156        C182   1.450       .  S
O157       Al159   1.984       .  S
O158        C160   1.253       .  A
O158       Al159   1.882       .  S
Al159       O167   1.947       .  S
Al159       O169   2.000       .  S
Al159       O168   1.778       .  S
C160        O173   1.260       .  A
C160        C189   1.438       .  S
O161        C171   1.257       .  A
O161       Al163   1.898       .  S
O162        C175   1.264       .  A
O162       Al396   1.897   1_554  S
Al163       O173   1.929       .  S
Al163       O379   1.873       .  S
Al163       O400   1.946       .  S
Al163       O168   1.786       .  S
O164        C171   1.245       .  A
O164       Al172   1.836       .  S
O165        C398   1.241       .  A
O165       Al396   1.838       .  S
O166       Al172   1.869       .  S
O167        C174   1.268       .  A
O168       Al172   1.788       .  S
O169        C170   1.284       .  A
C170        O379   1.257       .  A
C170        C209   1.466       .  S
C171        C211   1.387       .  S
Al172       O386   1.897       .  S
Al172       O389   1.838       .  S
C174        O389   1.241       .  A
C174        C177   1.433       .  S
C175        O176   1.271       .  A
C175        C192   1.437       .  S
O176       Al387   1.947   1_554  S
C177        C178   1.210       .  T
C178        C376   1.441       .  S
C179        C180   1.222       .  T
C181        C630   1.216       .  T
C182        C629   1.216   1_455  T
C183        C184   1.210       .  T
C185        C186   1.226       .  T
C187        C636   1.184       .  T
C188        C635   1.184   1_455  T
C189        C190   1.207       .  T
C191        C192   1.207       .  T
C193        C194   1.210       .  T
C195        C196   1.207       .  T
C197        C198   1.207       .  T
C199        C648   1.225   1_545  T
C200        C647   1.225   1_465  T
C201        C202   1.184       .  T
C203        C652   1.222       .  T
C204        C651   1.222   1_455  T
C205        C206   1.207       .  T
C207        C208   1.207       .  T
C209        C434   1.225       .  T
C210        C433   1.225   1_554  T
C211        C884   1.184   1_455  T
C212        C883   1.184       .  T
C213        C214   1.216       .  T
C215        C216   1.210       .  T
C216        C266   1.441       .  S
C217        C890   1.225   1_565  T
C218        C889   1.225   1_444  T
C219        C444   1.184       .  T
C220        C443   1.184       .  T
C221        C222   1.207       .  T
C223        C224   1.207       .  T
C226        O236   1.256       .  A
C226        O227   1.279       .  A
C226        C438   1.450       .  S
O227       Al229   1.984       .  S
O228        C230   1.253       .  A
O228       Al229   1.882       .  S
Al229       O237   1.948       .  S
Al229       O239   2.000       .  S
Al229       O238   1.778       .  S
C230        O243   1.260   1_565  A
C230        C448   1.438   1_565  S
O231        C241   1.257   1_545  A
O231       Al233   1.898   1_545  S
O232        C245   1.264       .  A
Al233       O243   1.928   1_565  S
Al233       O238   1.786       .  S
O234        C241   1.245   1_554  A
O234       Al242   1.836   1_554  S
O236       Al242   1.869       .  S
O237        C244   1.268       .  A
O238       Al242   1.788       .  S
O239        C240   1.284       .  A
C240        C441   1.466       .  S
C241        C444   1.387   1_565  S
C244        C439   1.433       .  S
C245        O246   1.271       .  A
C245        C445   1.437       .  S
O247        C262   1.264       .  A
C248        O258   1.270       .  A
C248        O249   1.260       .  A
C248        C427   1.462       .  S
O250        C252   1.241       .  A
Al251       O259   1.858   1_554  S
Al251       O261   1.918   1_554  S
C252        O265   1.261       .  A
C252        C436   1.396       .  S
O253        C263   1.267       .  A
O253       Al255   1.926       .  S
O254        C267   1.288       .  A
O254       Al264   1.978       .  S
Al255       O268   1.894       .  S
Al255       O265   1.918       .  S
Al255       O260   1.782       .  S
O256        C263   1.257       .  A
O256       Al264   1.895       .  S
O257        C266   1.273       .  A
O257       Al264   1.977       .  S
O258       Al264   1.953       .  S
O260       Al264   1.774       .  S
O261        C262   1.260       .  A
C262        C432   1.437       .  S
C263        C429   1.435       .  S
C267        O268   1.260       .  A
C267        C434   1.463       .  S
O269        C284   1.257       .  A
O269       Al277   1.873       .  S
C270        O280   1.256       .  A
C270        O271   1.279       .  A
C270        C437   1.450       .  S
O271       Al273   1.983       .  S
O272        C274   1.253       .  A
O272       Al273   1.882       .  S
Al273       O281   1.947       .  S
Al273       O283   2.000       .  S
Al273       O282   1.778       .  S
C274        O287   1.260   1_565  A
C274        C420   1.438   1_565  S
O275        C285   1.257   1_545  A
O275       Al277   1.898   1_545  S
O276        C289   1.264       .  A
O276       Al286   1.897       .  S
Al277       O290   1.947       .  S
Al277       O287   1.929   1_565  S
Al277       O282   1.786       .  S
O278        C285   1.245       .  A
O278       Al286   1.836       .  S
O279        C288   1.241       .  A
O279       Al286   1.838       .  S
O280       Al286   1.869       .  S
O281        C288   1.268       .  A
O282       Al286   1.788       .  S
O283        C284   1.284       .  A
C284        C424   1.466       .  S
C285        C426   1.387   1_565  S
C288        C417   1.433       .  S
C289        O290   1.271       .  A
C289        C422   1.437       .  S
O291        C306   1.264       .  A
O291       Al299   1.911       .  S
C292        O302   1.270       .  A
C292        O293   1.260       .  A
C292        C428   1.462       .  S
O293       Al295   1.927       .  S
O294        C296   1.241       .  A
O294       Al295   1.832       .  S
Al295       O303   1.858       .  S
Al295       O305   1.918       .  S
Al295       O304   1.779       .  S
C296        O309   1.261       .  A
C296        C412   1.396       .  S
O297        C307   1.268       .  A
O297       Al299   1.926       .  S
O298        C311   1.288       .  A
O298       Al308   1.978       .  S
Al299       O312   1.894       .  S
Al299       O309   1.919       .  S
Al299       O304   1.782       .  S
O300        C307   1.257       .  A
O300       Al308   1.895       .  S
O301        C310   1.273       .  A
O301       Al308   1.977       .  S
O302       Al308   1.953       .  S
O303        C310   1.249       .  A
O304       Al308   1.774       .  S
O305        C306   1.260       .  A
C306        C414   1.437       .  S
C307        C415   1.435       .  S
C310        C418   1.441       .  S
C311        O312   1.260       .  A
C311        C410   1.463       .  S
O313        C328   1.257       .  A
O313       Al321   1.873       .  S
C314        O324   1.256       .  A
C314        O315   1.279       .  A
C314        C405   1.450       .  S
O315       Al317   1.984       .  S
O316        C318   1.253       .  A
O316       Al317   1.882       .  S
Al317       O325   1.948       .  S
Al317       O327   2.000       .  S
Al317       O326   1.778       .  S
C318        O331   1.260       .  A
C318        C431   1.438       .  S
O319        C329   1.257       .  A
O319       Al321   1.898       .  S
O320        C333   1.264       .  A
O320       Al330   1.897       .  S
Al321       O334   1.946       .  S
Al321       O331   1.929       .  S
Al321       O326   1.786       .  S
O322        C329   1.245       .  A
O322       Al330   1.836       .  S
O323        C332   1.241       .  A
O323       Al330   1.838       .  S
O324       Al330   1.869       .  S
O325        C332   1.268       .  A
O326       Al330   1.788       .  S
O327        C328   1.284       .  A
C328        C409   1.466       .  S
C329        C411   1.387       .  S
C332        C407   1.433       .  S
C333        O334   1.271       .  A
C333        C430   1.437       .  S
O335        C350   1.264       .  A
O335       Al343   1.910       .  S
C336        O346   1.270       .  A
C336        O337   1.260       .  A
C336        C404   1.462       .  S
O337       Al339   1.927       .  S
O338        C340   1.241       .  A
O338       Al339   1.832       .  S
Al339       O347   1.858       .  S
Al339       O349   1.917       .  S
Al339       O348   1.778       .  S
C340        O353   1.261       .  A
C340        C425   1.396       .  S
O341        C351   1.267   1_565  A
O341       Al343   1.926   1_565  S
O342        C355   1.288       .  A
O342       Al352   1.978       .  S
Al343       O356   1.893       .  S
Al343       O353   1.918       .  S
Al343       O348   1.782       .  S
O344        C351   1.257       .  A
O344       Al352   1.895       .  S
O345        C354   1.273       .  A
O345       Al352   1.977       .  S
O346       Al352   1.953       .  S
O347        C354   1.249       .  A
O348       Al352   1.774       .  S
O349        C350   1.260       .  A
C350        C447   1.437       .  S
C351        C446   1.435   1_545  S
C354        C408   1.441       .  S
C355        O356   1.260       .  A
C355        C423   1.463       .  S
O357        C372   1.264       .  A
C358        O368   1.270       .  A
C358        O359   1.260       .  A
C358        C403   1.462       .  S
O360        C362   1.241       .  A
Al361       O369   1.858   1_554  S
Al361       O371   1.917   1_554  S
C362        O375   1.261       .  A
C362        C443   1.396       .  S
O363        C373   1.268   1_565  A
O363       Al365   1.926   1_565  S
O364        C377   1.288       .  A
O364       Al374   1.978       .  S
Al365       O378   1.893       .  S
Al365       O375   1.918       .  S
Al365       O370   1.783       .  S
O366        C373   1.257       .  A
O366       Al374   1.894       .  S
O367        C376   1.273       .  A
O367       Al374   1.977       .  S
O368       Al374   1.953       .  S
O370       Al374   1.774       .  S
O371        C372   1.260       .  A
C372        C419   1.437       .  S
C373        C421   1.435   1_545  S
C377        O378   1.259       .  A
C377        C442   1.463       .  S
C380        O390   1.256       .  A
C380        O381   1.279       .  A
C380        C406   1.450       .  S
O381       Al383   1.984       .  S
O382        C384   1.253       .  A
O382       Al383   1.882       .  S
Al383       O391   1.947       .  S
Al383       O393   2.000       .  S
Al383       O392   1.778       .  S
C384        O397   1.260       .  A
C384        C413   1.438       .  S
O385        C395   1.257       .  A
O385       Al387   1.898       .  S
O386        C399   1.264       .  A
Al387       O397   1.929       .  S
Al387       O392   1.786       .  S
O388        C395   1.245   1_554  A
O388       Al396   1.836   1_554  S
O390       Al396   1.869       .  S
O391        C398   1.268       .  A
O392       Al396   1.788       .  S
O393        C394   1.284       .  A
C394        C433   1.466       .  S
C395        C435   1.387       .  S
C398        C401   1.433       .  S
C399        O400   1.271       .  A
C399        C416   1.437       .  S
C401        C402   1.210   1_556  T
C403        C404   1.222       .  T
C405        C854   1.216       .  T
C406        C853   1.216   1_455  T
C407        C408   1.210       .  T
C409        C410   1.226       .  T
C411        C860   1.184       .  T
C412        C859   1.184   1_455  T
C413        C414   1.207       .  T
C415        C416   1.207       .  T
C417        C418   1.210       .  T
C419        C420   1.207       .  T
C421        C422   1.207       .  T
C423        C872   1.225   1_545  T
C424        C871   1.225   1_465  T
C425        C426   1.184       .  T
C427        C876   1.222       .  T
C428        C875   1.222   1_455  T
C429        C430   1.207       .  T
C431        C432   1.207       .  T
C435        C660   1.184   1_455  T
C436        C659   1.184       .  T
C437        C438   1.216       .  T
C439        C440   1.210   1_556  T
C441        C666   1.225   1_566  T
C442        C665   1.225   1_445  T
C445        C446   1.207       .  T
C447        C448   1.207       .  T
O449        C688   1.257   1_554  A
O449       Al681   1.873   1_554  S
C450        O460   1.256       .  A
C450        O451   1.279       .  A
C450        C662   1.450       .  S
O451       Al453   1.984       .  S
O452        C454   1.253       .  A
O452       Al453   1.882       .  S
Al453       O461   1.948       .  S
Al453       O463   2.000       .  S
Al453       O462   1.778       .  S
C454        O467   1.260   1_565  A
C454        C672   1.438   1_565  S
O455        C465   1.257   1_545  A
O455       Al457   1.898   1_545  S
O456        C469   1.264       .  A
O456       Al690   1.897   1_554  S
Al457       O673   1.873       .  S
Al457       O694   1.946       .  S
Al457       O467   1.928   1_565  S
Al457       O462   1.786       .  S
O458        C465   1.245       .  A
O458       Al466   1.836       .  S
O459        C692   1.241       .  A
O459       Al690   1.838       .  S
O460       Al466   1.869       .  S
O461        C468   1.268       .  A
O462       Al466   1.788       .  S
O463        C464   1.284       .  A
C464        O673   1.257       .  A
C464        C665   1.466       .  S
C465        C668   1.387   1_565  S
Al466       O680   1.897       .  S
Al466       O683   1.838       .  S
C468        O683   1.241       .  A
C468        C663   1.433       .  S
C469        O470   1.271       .  A
C469        C669   1.437       .  S
O470       Al681   1.946   1_554  S
O471        C486   1.264       .  A
O471       Al703   1.910       .  S
C472        O482   1.270       .  A
C472        O473   1.260       .  A
C472        C651   1.462       .  S
O473       Al699   1.927       .  S
O474        C476   1.241       .  A
O474       Al699   1.832       .  S
Al475       O697   1.927       .  S
Al475       O698   1.832       .  S
Al475       O483   1.858       .  S
Al475       O485   1.918       .  S
Al475       O708   1.779       .  S
C476        O489   1.261       .  A
C476        C660   1.396   1_554  S
O477        C487   1.267       .  A
O477       Al479   1.926       .  S
O478        C491   1.288       .  A
O478       Al488   1.978       .  S
Al479       O695   1.910   1_554  S
Al479       O492   1.893       .  S
Al479       O489   1.918       .  S
Al479       O484   1.782       .  S
O480        C487   1.257       .  A
O480       Al488   1.895       .  S
O481        C490   1.273       .  A
O481       Al488   1.977       .  S
O482       Al488   1.953       .  S
O483        C714   1.249       .  A
O484       Al699   1.779       .  S
O484       Al488   1.774       .  S
O485        C486   1.260       .  A
C486        C656   1.437       .  S
C487        C653   1.435       .  S
C490        O707   1.249   1_554  A
C490        C888   1.441       .  S
C491        O492   1.260       .  A
C491        C658   1.463       .  S
O493        C508   1.257       .  A
O493       Al501   1.873       .  S
C494        O504   1.256       .  A
C494        O495   1.279       .  A
C494        C661   1.450       .  S
O495       Al497   1.984       .  S
O496        C498   1.253       .  A
O496       Al497   1.882       .  S
Al497       O505   1.947       .  S
Al497       O507   2.000       .  S
Al497       O506   1.778       .  S
C498        O511   1.260   1_565  A
C498        C644   1.438   1_565  S
O499        C509   1.257   1_545  A
O499       Al501   1.898   1_545  S
O500        C513   1.264       .  A
O500       Al510   1.897       .  S
Al501       O514   1.947       .  S
Al501       O511   1.929   1_565  S
Al501       O506   1.786       .  S
O502        C509   1.245       .  A
O502       Al510   1.836       .  S
O503        C512   1.241       .  A
O503       Al510   1.838       .  S
O504       Al510   1.869       .  S
O505        C512   1.268       .  A
O506       Al510   1.788       .  S
O507        C508   1.284       .  A
C508        C648   1.466       .  S
C509        C650   1.387   1_565  S
C512        C641   1.433       .  S
C513        O514   1.271       .  A
C513        C646   1.437       .  S
O515        C530   1.264       .  A
O515       Al523   1.911       .  S
C516        O526   1.270       .  A
C516        O517   1.260       .  A
C516        C652   1.462       .  S
O517       Al519   1.927       .  S
O518        C520   1.241       .  A
O518       Al519   1.832       .  S
Al519       O527   1.858       .  S
Al519       O529   1.918       .  S
Al519       O528   1.779       .  S
C520        O533   1.261       .  A
C520        C636   1.396       .  S
O521        C531   1.268       .  A
O521       Al523   1.926       .  S
O522        C535   1.288       .  A
O522       Al532   1.978       .  S
Al523       O536   1.894       .  S
Al523       O533   1.919       .  S
Al523       O528   1.782       .  S
O524        C531   1.257       .  A
O524       Al532   1.894       .  S
O525        C534   1.273       .  A
O525       Al532   1.977       .  S
O526       Al532   1.953       .  S
O527        C534   1.249       .  A
O528       Al532   1.774       .  S
O529        C530   1.260       .  A
C530        C638   1.437       .  S
C531        C639   1.435       .  S
C534        C642   1.441       .  S
C535        O536   1.260       .  A
C535        C634   1.463       .  S
O537        C552   1.257       .  A
O537       Al545   1.873       .  S
C538        O548   1.256       .  A
C538        O539   1.279       .  A
C538        C629   1.450       .  S
O539       Al541   1.984       .  S
O540        C542   1.253       .  A
O540       Al541   1.882       .  S
Al541       O549   1.948       .  S
Al541       O551   2.000       .  S
Al541       O550   1.778       .  S
C542        O555   1.260       .  A
C542        C655   1.438       .  S
O543        C553   1.257       .  A
O543       Al545   1.898       .  S
O544        C557   1.264       .  A
O544       Al554   1.897       .  S
Al545       O558   1.946       .  S
Al545       O555   1.929       .  S
Al545       O550   1.786       .  S
O546        C553   1.245       .  A
O546       Al554   1.836       .  S
O547        C556   1.241       .  A
O547       Al554   1.838       .  S
O548       Al554   1.869       .  S
O549        C556   1.268       .  A
O550       Al554   1.788       .  S
O551        C552   1.284       .  A
C552        C633   1.466       .  S
C553        C635   1.387       .  S
C556        C631   1.433       .  S
C557        O558   1.271       .  A
C557        C654   1.437       .  S
O559        C574   1.264       .  A
O559       Al567   1.911       .  S
C560        O570   1.270       .  A
C560        O561   1.260       .  A
C560        C628   1.462       .  S
O561       Al563   1.927       .  S
O562        C564   1.241       .  A
O562       Al563   1.832       .  S
Al563       O571   1.858       .  S
Al563       O573   1.917       .  S
Al563       O572   1.778       .  S
C564        O577   1.261       .  A
C564        C649   1.396       .  S
O565        C575   1.267   1_565  A
O565       Al567   1.926   1_565  S
O566        C579   1.288       .  A
O566       Al576   1.978       .  S
Al567       O580   1.893       .  S
Al567       O577   1.918       .  S
Al567       O572   1.782       .  S
O568        C575   1.257       .  A
O568       Al576   1.895       .  S
O569        C578   1.273       .  A
O569       Al576   1.977       .  S
O570       Al576   1.953       .  S
O571        C578   1.249       .  A
O572       Al576   1.774       .  S
O573        C574   1.260       .  A
C574        C671   1.437       .  S
C575        C670   1.435   1_545  S
C578        C632   1.441       .  S
C579        O580   1.260       .  A
C579        C647   1.463       .  S
O581        C596   1.264       .  A
O581       Al813   1.911       .  S
C582        O592   1.270       .  A
C582        O583   1.260       .  A
C582        C627   1.462       .  S
O583       Al809   1.927       .  S
O584        C586   1.241       .  A
O584       Al809   1.832       .  S
Al585       O807   1.927       .  S
Al585       O808   1.832       .  S
Al585       O593   1.858       .  S
Al585       O595   1.917       .  S
Al585       O818   1.779       .  S
C586        O599   1.261       .  A
C586        C667   1.396   1_554  S
O587        C597   1.268   1_565  A
O587       Al589   1.926   1_565  S
O588        C601   1.288       .  A
O588       Al598   1.978       .  S
Al589       O805   1.911   1_554  S
Al589       O602   1.893       .  S
Al589       O599   1.918       .  S
Al589       O594   1.783       .  S
O590        C597   1.257       .  A
O590       Al598   1.894       .  S
O591        C600   1.273       .  A
O591       Al598   1.977       .  S
O592       Al598   1.953       .  S
O593        C824   1.249       .  A
O594       Al809   1.779       .  S
O594       Al598   1.774       .  S
O595        C596   1.260       .  A
C596        C643   1.437       .  S
C597        C645   1.435   1_545  S
C600        O817   1.249   1_554  A
C600        C850   1.441       .  S
C601        O602   1.259       .  A
C601        C666   1.463       .  S
O603        C842   1.257   1_554  A
O603       Al835   1.873   1_554  S
C604        O614   1.256       .  A
C604        O605   1.279       .  A
C604        C630   1.450       .  S
O605       Al607   1.984       .  S
O606        C608   1.253       .  A
O606       Al607   1.882       .  S
Al607       O615   1.947       .  S
Al607       O617   2.000       .  S
Al607       O616   1.778       .  S
C608        O621   1.260       .  A
C608        C637   1.438       .  S
O609        C619   1.257       .  A
O609       Al611   1.898       .  S
O610        C623   1.264       .  A
O610       Al844   1.897   1_554  S
Al611       O827   1.873       .  S
Al611       O848   1.946       .  S
Al611       O621   1.929       .  S
Al611       O616   1.786       .  S
O612        C619   1.245       .  A
O612       Al620   1.836       .  S
O613        C846   1.241       .  A
O613       Al844   1.838       .  S
O614       Al620   1.869       .  S
O615        C622   1.268       .  A
O616       Al620   1.788       .  S
O617        C618   1.284       .  A
C618        O827   1.257       .  A
C618        C657   1.466       .  S
C619        C659   1.387       .  S
Al620       O834   1.897       .  S
Al620       O837   1.838       .  S
C622        O837   1.241       .  A
C622        C625   1.433       .  S
C623        O624   1.271       .  A
C623        C640   1.437       .  S
O624       Al835   1.947   1_554  S
C625        C626   1.210       .  T
C626        C824   1.441       .  S
C627        C628   1.222       .  T
C631        C632   1.210       .  T
C633        C634   1.226       .  T
C637        C638   1.207       .  T
C639        C640   1.207       .  T
C641        C642   1.210       .  T
C643        C644   1.207       .  T
C645        C646   1.207       .  T
C649        C650   1.184       .  T
C653        C654   1.207       .  T
C655        C656   1.207       .  T
C657        C882   1.225       .  T
C658        C881   1.225   1_554  T
C661        C662   1.216       .  T
C663        C664   1.210       .  T
C664        C714   1.441       .  S
C667        C892   1.184       .  T
C668        C891   1.184       .  T
C669        C670   1.207       .  T
C671        C672   1.207       .  T
C674        O684   1.256       .  A
C674        O675   1.279       .  A
C674        C886   1.450       .  S
O675       Al677   1.984       .  S
O676        C678   1.253       .  A
O676       Al677   1.882       .  S
Al677       O685   1.948       .  S
Al677       O687   2.000       .  S
Al677       O686   1.778       .  S
C678        O691   1.260   1_565  A
C678        C896   1.438   1_565  S
O679        C689   1.257   1_545  A
O679       Al681   1.898   1_545  S
O680        C693   1.264       .  A
Al681       O691   1.928   1_565  S
Al681       O686   1.786       .  S
O682        C689   1.245   1_554  A
O682       Al690   1.836   1_554  S
O684       Al690   1.869       .  S
O685        C692   1.268       .  A
O686       Al690   1.788       .  S
O687        C688   1.284       .  A
C688        C889   1.466       .  S
C689        C892   1.387   1_565  S
C692        C887   1.433       .  S
C693        O694   1.271       .  A
C693        C893   1.437       .  S
O695        C710   1.264       .  A
C696        O706   1.270       .  A
C696        O697   1.260       .  A
C696        C875   1.462       .  S
O698        C700   1.241       .  A
Al699       O707   1.858   1_554  S
Al699       O709   1.918   1_554  S
C700        O713   1.261       .  A
C700        C884   1.396       .  S
O701        C711   1.267       .  A
O701       Al703   1.926       .  S
O702        C715   1.288       .  A
O702       Al712   1.978       .  S
Al703       O716   1.894       .  S
Al703       O713   1.918       .  S
Al703       O708   1.782       .  S
O704        C711   1.257       .  A
O704       Al712   1.895       .  S
O705        C714   1.273       .  A
O705       Al712   1.977       .  S
O706       Al712   1.953       .  S
O708       Al712   1.774       .  S
O709        C710   1.260       .  A
C710        C880   1.437       .  S
C711        C877   1.435       .  S
C715        O716   1.260       .  A
C715        C882   1.463       .  S
O717        C732   1.257       .  A
O717       Al725   1.873       .  S
C718        O728   1.256       .  A
C718        O719   1.279       .  A
C718        C885   1.450       .  S
O719       Al721   1.983       .  S
O720        C722   1.253       .  A
O720       Al721   1.882       .  S
Al721       O729   1.947       .  S
Al721       O731   2.000       .  S
Al721       O730   1.778       .  S
C722        O735   1.260   1_565  A
C722        C868   1.438   1_565  S
O723        C733   1.257   1_545  A
O723       Al725   1.898   1_545  S
O724        C737   1.264       .  A
O724       Al734   1.897       .  S
Al725       O738   1.947       .  S
Al725       O735   1.929   1_565  S
Al725       O730   1.786       .  S
O726        C733   1.245       .  A
O726       Al734   1.836       .  S
O727        C736   1.241       .  A
O727       Al734   1.838       .  S
O728       Al734   1.869       .  S
O729        C736   1.268       .  A
O730       Al734   1.788       .  S
O731        C732   1.284       .  A
C732        C872   1.466       .  S
C733        C874   1.387   1_565  S
C736        C865   1.433       .  S
C737        O738   1.271       .  A
C737        C870   1.437       .  S
O739        C754   1.264       .  A
O739       Al747   1.911       .  S
C740        O750   1.270       .  A
C740        O741   1.260       .  A
C740        C876   1.462       .  S
O741       Al743   1.927       .  S
O742        C744   1.241       .  A
O742       Al743   1.832       .  S
Al743       O751   1.858       .  S
Al743       O753   1.918       .  S
Al743       O752   1.779       .  S
C744        O757   1.261       .  A
C744        C860   1.396       .  S
O745        C755   1.268       .  A
O745       Al747   1.926       .  S
O746        C759   1.288       .  A
O746       Al756   1.978       .  S
Al747       O760   1.894       .  S
Al747       O757   1.919       .  S
Al747       O752   1.782       .  S
O748        C755   1.257       .  A
O748       Al756   1.895       .  S
O749        C758   1.273       .  A
O749       Al756   1.977       .  S
O750       Al756   1.953       .  S
O751        C758   1.249       .  A
O752       Al756   1.774       .  S
O753        C754   1.260       .  A
C754        C862   1.437       .  S
C755        C863   1.435       .  S
C758        C866   1.441       .  S
C759        O760   1.260       .  A
C759        C858   1.463       .  S
O761        C776   1.257       .  A
O761       Al769   1.873       .  S
C762        O772   1.256       .  A
C762        O763   1.279       .  A
C762        C853   1.450       .  S
O763       Al765   1.984       .  S
O764        C766   1.253       .  A
O764       Al765   1.882       .  S
Al765       O773   1.948       .  S
Al765       O775   2.000       .  S
Al765       O774   1.778       .  S
C766        O779   1.260       .  A
C766        C879   1.438       .  S
O767        C777   1.257       .  A
O767       Al769   1.898       .  S
O768        C781   1.264       .  A
O768       Al778   1.897       .  S
Al769       O782   1.946       .  S
Al769       O779   1.929       .  S
Al769       O774   1.786       .  S
O770        C777   1.245       .  A
O770       Al778   1.836       .  S
O771        C780   1.241       .  A
O771       Al778   1.838       .  S
O772       Al778   1.869       .  S
O773        C780   1.268       .  A
O774       Al778   1.788       .  S
O775        C776   1.284       .  A
C776        C857   1.466       .  S
C777        C859   1.387       .  S
C780        C855   1.433       .  S
C781        O782   1.271       .  A
C781        C878   1.437       .  S
O783        C798   1.264       .  A
O783       Al791   1.910       .  S
C784        O794   1.270       .  A
C784        O785   1.260       .  A
C784        C852   1.462       .  S
O785       Al787   1.927       .  S
O786        C788   1.241       .  A
O786       Al787   1.832       .  S
Al787       O795   1.858       .  S
Al787       O797   1.917       .  S
Al787       O796   1.778       .  S
C788        O801   1.261       .  A
C788        C873   1.396       .  S
O789        C799   1.267   1_565  A
O789       Al791   1.926   1_565  S
O790        C803   1.288       .  A
O790       Al800   1.978       .  S
Al791       O804   1.893       .  S
Al791       O801   1.918       .  S
Al791       O796   1.782       .  S
O792        C799   1.257       .  A
O792       Al800   1.895       .  S
O793        C802   1.273       .  A
O793       Al800   1.977       .  S
O794       Al800   1.953       .  S
O795        C802   1.249       .  A
O796       Al800   1.774       .  S
O797        C798   1.260       .  A
C798        C895   1.437       .  S
C799        C894   1.435   1_545  S
C802        C856   1.441       .  S
C803        O804   1.260       .  A
C803        C871   1.463       .  S
O805        C820   1.264       .  A
C806        O816   1.270       .  A
C806        O807   1.260       .  A
C806        C851   1.462       .  S
O808        C810   1.241       .  A
Al809       O817   1.858   1_554  S
Al809       O819   1.917   1_554  S
C810        O823   1.261       .  A
C810        C891   1.396       .  S
O811        C821   1.268   1_565  A
O811       Al813   1.926   1_565  S
O812        C825   1.288       .  A
O812       Al822   1.978       .  S
Al813       O826   1.893       .  S
Al813       O823   1.918       .  S
Al813       O818   1.783       .  S
O814        C821   1.257       .  A
O814       Al822   1.894       .  S
O815        C824   1.273       .  A
O815       Al822   1.977       .  S
O816       Al822   1.953       .  S
O818       Al822   1.774       .  S
O819        C820   1.260       .  A
C820        C867   1.437       .  S
C821        C869   1.435   1_545  S
C825        O826   1.259       .  A
C825        C890   1.463       .  S
C828        O838   1.256       .  A
C828        O829   1.279       .  A
C828        C854   1.450       .  S
O829       Al831   1.984       .  S
O830        C832   1.253       .  A
O830       Al831   1.882       .  S
Al831       O839   1.947       .  S
Al831       O841   2.000       .  S
Al831       O840   1.778       .  S
C832        O845   1.260       .  A
C832        C861   1.438       .  S
O833        C843   1.257       .  A
O833       Al835   1.898       .  S
O834        C847   1.264       .  A
Al835       O845   1.929       .  S
Al835       O840   1.786       .  S
O836        C843   1.245   1_554  A
O836       Al844   1.836   1_554  S
O838       Al844   1.869       .  S
O839        C846   1.268       .  A
O840       Al844   1.788       .  S
O841        C842   1.284       .  A
C842        C881   1.466       .  S
C843        C883   1.387       .  S
C846        C849   1.433       .  S
C847        O848   1.271       .  A
C847        C864   1.437       .  S
C849        C850   1.210   1_556  T
C851        C852   1.222       .  T
C855        C856   1.210       .  T
C857        C858   1.226       .  T
C861        C862   1.207       .  T
C863        C864   1.207       .  T
C865        C866   1.210       .  T
C867        C868   1.207       .  T
C869        C870   1.207       .  T
C873        C874   1.184       .  T
C877        C878   1.207       .  T
C879        C880   1.207       .  T
C885        C886   1.216       .  T
C887        C888   1.210   1_556  T
C893        C894   1.207       .  T
C895        C896   1.207       .  T
